 
data_182
 
_audit_creation_method            'SHELXL-2014/7'
_shelx_SHELXL_version_number      '2014/7'
_chemical_name_systematic         ?
_chemical_name_common             ?
_chemical_melting_point           ?
_chemical_formula_moiety          ?
_chemical_formula_sum
 'Cr0.75 Nb1.50 S3' 
_chemical_formula_weight          274.55

loop_
 _atom_type_symbol
 _atom_type_description
 _atom_type_scat_dispersion_real
 _atom_type_scat_dispersion_imag
 _atom_type_scat_source
 'S'  'S'   0.1246   0.1234
 'International Tables Vol C Tables 4.2.6.8 and 6.1.1.4'
 'Cr'  'Cr'   0.3209   0.6236
 'International Tables Vol C Tables 4.2.6.8 and 6.1.1.4'
 'Nb'  'Nb'  -2.0727   0.6215
 'International Tables Vol C Tables 4.2.6.8 and 6.1.1.4'
 
_space_group_crystal_system       hexagonal
_space_group_IT_number            182
_space_group_name_H-M_alt         'P 63 2 2'
_space_group_name_Hall            'P 6c 2c'
 
_shelx_space_group_comment
;
The symmetry employed for this shelxl refinement is uniquely defined
by the following loop, which should always be used as a source of
symmetry information in preference to the above space-group names.
They are only intended as comments.
;
 
loop_
 _space_group_symop_operation_xyz
 'x, y, z'
 '-y, x-y, z'
 '-x+y, -x, z'
 '-x, -y, z+1/2'
 'y, -x+y, z+1/2'
 'x-y, x, z+1/2'
 'y, x, -z'
 'x-y, -y, -z'
 '-x, -x+y, -z'
 '-y, -x, -z+1/2'
 '-x+y, y, -z+1/2'
 'x, x-y, -z+1/2'
 
_cell_length_a                    5.74530(10)
_cell_length_b                    5.74530(10)
_cell_length_c                    12.0676(2)
_cell_angle_alpha                 90
_cell_angle_beta                  90
_cell_angle_gamma                 120
_cell_volume                      344.966(13)
_cell_formula_units_Z             4
_cell_measurement_temperature     296(2)
_cell_measurement_reflns_used     ?
_cell_measurement_theta_min       ?
_cell_measurement_theta_max       ?
 
_exptl_crystal_description        ?
_exptl_crystal_colour             ?
_exptl_crystal_density_meas       ?
_exptl_crystal_density_method     ?
_exptl_crystal_density_diffrn     5.286          
_exptl_crystal_F_000              510
_exptl_transmission_factor_min    ?
_exptl_transmission_factor_max    ?
_exptl_crystal_size_max           ?
_exptl_crystal_size_mid           ?
_exptl_crystal_size_min           ?
_exptl_absorpt_coefficient_mu     8.843
_shelx_estimated_absorpt_T_min    ?
_shelx_estimated_absorpt_T_max    ?
_exptl_absorpt_correction_type    ?
_exptl_absorpt_correction_T_min   ?
_exptl_absorpt_correction_T_max   ?
_exptl_absorpt_process_details    ?
_exptl_absorpt_special_details    ?
_diffrn_ambient_temperature       296(2)
_diffrn_radiation_wavelength      0.71073
_diffrn_radiation_type            MoK\a
_diffrn_source                    ?
_diffrn_measurement_device_type   ?
_diffrn_measurement_method        ?
_diffrn_detector_area_resol_mean  ?
_diffrn_reflns_number             9514
_diffrn_reflns_av_unetI/netI      0.0121
_diffrn_reflns_av_R_equivalents   0.0431
_diffrn_reflns_limit_h_min        -8
_diffrn_reflns_limit_h_max        7
_diffrn_reflns_limit_k_min        -8
_diffrn_reflns_limit_k_max        8
_diffrn_reflns_limit_l_min        -17
_diffrn_reflns_limit_l_max        17
_diffrn_reflns_theta_min          4.096
_diffrn_reflns_theta_max          30.511
_diffrn_reflns_theta_full         25.242
_diffrn_measured_fraction_theta_max   0.996
_diffrn_measured_fraction_theta_full  0.994
_diffrn_reflns_Laue_measured_fraction_max    0.996
_diffrn_reflns_Laue_measured_fraction_full   0.994
_diffrn_reflns_point_group_measured_fraction_max   0.997
_diffrn_reflns_point_group_measured_fraction_full  0.995
_reflns_number_total              363
_reflns_number_gt                 360
_reflns_threshold_expression      'I > 2\s(I)'
_reflns_Friedel_coverage          0.391
_reflns_Friedel_fraction_max      1.000
_reflns_Friedel_fraction_full     1.000
 
_reflns_special_details
;
 Reflections were merged by SHELXL according to the crystal
 class for the calculation of statistics and refinement.
 
 _reflns_Friedel_fraction is defined as the number of unique
 Friedel pairs measured divided by the number that would be
 possible theoretically, ignoring centric projections and
 systematic absences.
;
 
_computing_data_collection        ?
_computing_cell_refinement        ?
_computing_data_reduction         ?
_computing_structure_solution     ?
_computing_structure_refinement 'SHELXL-2014/7 (Sheldrick, 2014)'
_computing_molecular_graphics     ?
_computing_publication_material   ?
_refine_special_details           ?
_refine_ls_structure_factor_coef  Fsqd
_refine_ls_matrix_type            full
_refine_ls_weighting_scheme       calc
_refine_ls_weighting_details
'w=1/[\s^2^(Fo^2^)+(0.0214P)^2^+0.0330P] where P=(Fo^2^+2Fc^2^)/3'
_atom_sites_solution_primary      ?
_atom_sites_solution_secondary    ?
_atom_sites_solution_hydrogens    .
_refine_ls_hydrogen_treatment     undef
_refine_ls_extinction_method      'SHELXL-2014/7 (Sheldrick 2014'
_refine_ls_extinction_coef        0.0062(12)
_refine_ls_extinction_expression
 'Fc^*^=kFc[1+0.001xFc^2^\l^3^/sin(2\q)]^-1/4^'
_refine_ls_abs_structure_details
;
 Flack x determined using 100 quotients [(I+)-(I-)]/[(I+)+(I-)]
 (Parsons, Flack and Wagner, Acta Cryst. B69 (2013) 249-259).
;
_refine_ls_abs_structure_Flack    0.0(2)
_chemical_absolute_configuration  ?
_refine_ls_number_reflns          363
_refine_ls_number_parameters      21
_refine_ls_number_restraints      0
_refine_ls_R_factor_all           0.0158
_refine_ls_R_factor_gt            0.0155
_refine_ls_wR_factor_ref          0.0499
_refine_ls_wR_factor_gt           0.0498
_refine_ls_goodness_of_fit_ref    1.575
_refine_ls_restrained_S_all       1.575
_refine_ls_shift/su_max           0.000
_refine_ls_shift/su_mean          0.000
 
loop_
 _atom_site_label
 _atom_site_type_symbol
 _atom_site_fract_x
 _atom_site_fract_y
 _atom_site_fract_z
 _atom_site_U_iso_or_equiv
 _atom_site_adp_type
 _atom_site_occupancy
 _atom_site_site_symmetry_order  
 _atom_site_calc_flag
 _atom_site_refinement_flags_posn
 _atom_site_refinement_flags_adp
 _atom_site_refinement_flags_occupancy
 _atom_site_disorder_assembly
 _atom_site_disorder_group
Nb1 Nb 0.3333 0.6667 0.49767(2) 0.0039(2) Uani 1 3 d S T P . .
Nb2 Nb 0.0000 0.0000 0.5000 0.0038(2) Uani 1 6 d S T P . .
Cr1 Cr 0.6667 0.3333 0.2500 0.0034(2) Uani 0.828(8) 6 d S T . . .
S1 S 0.33274(7) 0.33214(7) 0.36914(5) 0.0050(2) Uani 1 1 d . . . . .
Cr2 Cr 0.0000 0.0000 0.2500 0.0034(9) Uani 0.056(5) 6 d S T . . .
Cr3 Cr 0.3333 0.6667 0.2500 0.0034(9) Uani 0.024(5) 6 d S T . . .
 
loop_
 _atom_site_aniso_label
 _atom_site_aniso_U_11
 _atom_site_aniso_U_22
 _atom_site_aniso_U_33
 _atom_site_aniso_U_23
 _atom_site_aniso_U_13
 _atom_site_aniso_U_12
Nb1 0.0033(2) 0.0033(2) 0.0051(3) 0.000 0.000 0.00167(12)
Nb2 0.0033(2) 0.0033(2) 0.0050(3) 0.000 0.000 0.00163(12)
Cr1 0.0033(3) 0.0033(3) 0.0036(3) 0.000 0.000 0.00163(14)
S1 0.0046(3) 0.0045(3) 0.0060(4) -0.00009(11) 0.00034(11) 0.00230(17)
Cr2 0.0033(13) 0.0033(13) 0.0036(3) 0.000 0.000 0.0016(6)
Cr3 0.0033(13) 0.0033(13) 0.0036(3) 0.000 0.000 0.0016(6)
 
_geom_special_details
;
 All esds (except the esd in the dihedral angle between two l.s. planes)
 are estimated using the full covariance matrix.  The cell esds are taken
 into account individually in the estimation of esds in distances, angles
 and torsion angles; correlations between esds in cell parameters are only
 used when they are defined by crystal symmetry.  An approximate (isotropic)
 treatment of cell esds is used for estimating esds involving l.s. planes.
;
 
loop_
 _geom_bond_atom_site_label_1
 _geom_bond_atom_site_label_2
 _geom_bond_distance
 _geom_bond_site_symmetry_2
 _geom_bond_publ_flag
Nb1 S1 2.4684(5) . ?
Nb1 S1 2.4684(5) 3_565 ?
Nb1 S1 2.4684(5) 2_665 ?
Nb1 S1 2.5002(5) 9_666 ?
Nb1 S1 2.5002(5) 8_566 ?
Nb1 S1 2.5002(5) 7_556 ?
Nb1 Cr3 2.9888(2) . ?
Nb1 Cr1 3.0450(2) 4_665 ?
Nb1 Nb2 3.31717(5) 1_565 ?
Nb1 Nb2 3.31717(6) . ?
Nb1 Nb2 3.31717(6) 1_665 ?
Nb1 Nb1 3.31750(6) 7_556 ?
Nb2 S1 2.4782(4) . ?
Nb2 S1 2.4783(4) 7_556 ?
Nb2 S1 2.4783(4) 2 ?
Nb2 S1 2.4783(4) 3 ?
Nb2 S1 2.4783(4) 9_556 ?
Nb2 S1 2.4783(4) 8_556 ?
Nb2 Cr2 3.01690(6) 4 ?
Nb2 Cr2 3.01690(5) . ?
Nb2 Nb1 3.31716(6) 7_446 ?
Nb2 Nb1 3.31716(6) 7_556 ?
Nb2 Nb1 3.31716(5) 1_445 ?
Cr1 S1 2.3947(5) 12 ?
Cr1 S1 2.3947(5) 3_665 ?
Cr1 S1 2.3947(5) 11_655 ?
Cr1 S1 2.3947(5) 2_655 ?
Cr1 S1 2.3947(5) 10_665 ?
Cr1 S1 2.3947(5) . ?
Cr1 Nb1 3.0450(2) 4_664 ?
Cr1 Nb1 3.0450(2) 7_556 ?
S1 Cr2 2.3907(4) . ?
S1 Cr3 2.3989(5) . ?
S1 Nb1 2.5001(5) 7_556 ?
Cr2 S1 2.3907(4) 10 ?
Cr2 S1 2.3907(4) 2 ?
Cr2 S1 2.3907(4) 12 ?
Cr2 S1 2.3907(4) 11 ?
Cr2 S1 2.3907(4) 3 ?
Cr2 Nb2 3.01690(5) 4_554 ?
Cr3 S1 2.3988(5) 11 ?
Cr3 S1 2.3988(5) 2_665 ?
Cr3 S1 2.3988(5) 12_565 ?
Cr3 S1 2.3988(5) 3_565 ?
Cr3 S1 2.3988(5) 10_665 ?
Cr3 Nb1 2.9888(2) 10_665 ?
 
loop_
 _geom_angle_atom_site_label_1
 _geom_angle_atom_site_label_2
 _geom_angle_atom_site_label_3
 _geom_angle
 _geom_angle_site_symmetry_1
 _geom_angle_site_symmetry_3
 _geom_angle_publ_flag
S1 Nb1 S1 84.707(19) . 3_565 ?
S1 Nb1 S1 84.707(19) . 2_665 ?
S1 Nb1 S1 84.707(19) 3_565 2_665 ?
S1 Nb1 S1 134.514(11) . 9_666 ?
S1 Nb1 S1 134.643(11) 3_565 9_666 ?
S1 Nb1 S1 78.93(2) 2_665 9_666 ?
S1 Nb1 S1 134.642(11) . 8_566 ?
S1 Nb1 S1 78.93(2) 3_565 8_566 ?
S1 Nb1 S1 134.514(11) 2_665 8_566 ?
S1 Nb1 S1 83.114(18) 9_666 8_566 ?
S1 Nb1 S1 78.93(2) . 7_556 ?
S1 Nb1 S1 134.514(11) 3_565 7_556 ?
S1 Nb1 S1 134.643(11) 2_665 7_556 ?
S1 Nb1 S1 83.114(18) 9_666 7_556 ?
S1 Nb1 S1 83.114(18) 8_566 7_556 ?
S1 Nb1 Cr3 51.072(13) . . ?
S1 Nb1 Cr3 51.071(13) 3_565 . ?
S1 Nb1 Cr3 51.071(13) 2_665 . ?
S1 Nb1 Cr3 130.005(12) 9_666 . ?
S1 Nb1 Cr3 130.005(12) 8_566 . ?
S1 Nb1 Cr3 130.005(12) 7_556 . ?
S1 Nb1 Cr1 128.928(13) . 4_665 ?
S1 Nb1 Cr1 128.930(13) 3_565 4_665 ?
S1 Nb1 Cr1 128.929(13) 2_665 4_665 ?
S1 Nb1 Cr1 49.995(12) 9_666 4_665 ?
S1 Nb1 Cr1 49.995(12) 8_566 4_665 ?
S1 Nb1 Cr1 49.994(12) 7_556 4_665 ?
Cr3 Nb1 Cr1 180.0 . 4_665 ?
S1 Nb1 Nb2 132.720(12) . 1_565 ?
S1 Nb1 Nb2 48.014(10) 3_565 1_565 ?
S1 Nb1 Nb2 90.373(8) 2_665 1_565 ?
S1 Nb1 Nb2 89.823(8) 9_666 1_565 ?
S1 Nb1 Nb2 47.936(10) 8_566 1_565 ?
S1 Nb1 Nb2 131.049(12) 7_556 1_565 ?
Cr3 Nb1 Nb2 90.486(4) . 1_565 ?
Cr1 Nb1 Nb2 89.515(4) 4_665 1_565 ?
S1 Nb1 Nb2 48.013(10) . . ?
S1 Nb1 Nb2 90.373(8) 3_565 . ?
S1 Nb1 Nb2 132.719(12) 2_665 . ?
S1 Nb1 Nb2 131.049(11) 9_666 . ?
S1 Nb1 Nb2 89.823(8) 8_566 . ?
S1 Nb1 Nb2 47.936(10) 7_556 . ?
Cr3 Nb1 Nb2 90.485(4) . . ?
Cr1 Nb1 Nb2 89.514(4) 4_665 . ?
Nb2 Nb1 Nb2 120.0 1_565 . ?
S1 Nb1 Nb2 90.373(8) . 1_665 ?
S1 Nb1 Nb2 132.719(12) 3_565 1_665 ?
S1 Nb1 Nb2 48.014(10) 2_665 1_665 ?
S1 Nb1 Nb2 47.936(10) 9_666 1_665 ?
S1 Nb1 Nb2 131.049(12) 8_566 1_665 ?
S1 Nb1 Nb2 89.823(8) 7_556 1_665 ?
Cr3 Nb1 Nb2 90.486(4) . 1_665 ?
Cr1 Nb1 Nb2 89.514(4) 4_665 1_665 ?
Nb2 Nb1 Nb2 120.0 1_565 1_665 ?
Nb2 Nb1 Nb2 120.0 . 1_665 ?
S1 Nb1 Nb1 48.519(11) . 7_556 ?
S1 Nb1 Nb1 133.223(14) 3_565 7_556 ?
S1 Nb1 Nb1 90.542(9) 2_665 7_556 ?
S1 Nb1 Nb1 89.241(9) 9_666 7_556 ?
S1 Nb1 Nb1 130.810(13) 8_566 7_556 ?
S1 Nb1 Nb1 47.703(11) 7_556 7_556 ?
Cr3 Nb1 Nb1 90.971(7) . 7_556 ?
Cr1 Nb1 Nb1 89.029(7) 4_665 7_556 ?
Nb2 Nb1 Nb1 178.544(11) 1_565 7_556 ?
Nb2 Nb1 Nb1 60.0 . 7_556 ?
Nb2 Nb1 Nb1 60.0 1_665 7_556 ?
S1 Nb2 S1 79.17(2) . 7_556 ?
S1 Nb2 S1 83.741(17) . 2 ?
S1 Nb2 S1 134.541(18) 7_556 2 ?
S1 Nb2 S1 83.741(17) . 3 ?
S1 Nb2 S1 134.798(18) 7_556 3 ?
S1 Nb2 S1 83.740(17) 2 3 ?
S1 Nb2 S1 134.798(18) . 9_556 ?
S1 Nb2 S1 83.740(17) 7_556 9_556 ?
S1 Nb2 S1 79.17(2) 2 9_556 ?
S1 Nb2 S1 134.541(19) 3 9_556 ?
S1 Nb2 S1 134.540(18) . 8_556 ?
S1 Nb2 S1 83.740(17) 7_556 8_556 ?
S1 Nb2 S1 134.798(19) 2 8_556 ?
S1 Nb2 S1 79.17(2) 3 8_556 ?
S1 Nb2 S1 83.740(17) 9_556 8_556 ?
S1 Nb2 Cr2 129.583(11) . 4 ?
S1 Nb2 Cr2 50.417(11) 7_556 4 ?
S1 Nb2 Cr2 129.583(11) 2 4 ?
S1 Nb2 Cr2 129.583(11) 3 4 ?
S1 Nb2 Cr2 50.417(11) 9_556 4 ?
S1 Nb2 Cr2 50.417(11) 8_556 4 ?
S1 Nb2 Cr2 50.417(11) . . ?
S1 Nb2 Cr2 129.583(11) 7_556 . ?
S1 Nb2 Cr2 50.417(11) 2 . ?
S1 Nb2 Cr2 50.417(11) 3 . ?
S1 Nb2 Cr2 129.583(11) 9_556 . ?
S1 Nb2 Cr2 129.583(11) 8_556 . ?
Cr2 Nb2 Cr2 180.0 4 . ?
S1 Nb2 Nb1 132.239(11) . 7_446 ?
S1 Nb2 Nb1 131.500(11) 7_556 7_446 ?
S1 Nb2 Nb1 90.377(9) 2 7_446 ?
S1 Nb2 Nb1 48.500(11) 3 7_446 ?
S1 Nb2 Nb1 89.622(9) 9_556 7_446 ?
S1 Nb2 Nb1 47.762(11) 8_556 7_446 ?
Cr2 Nb2 Nb1 89.515(4) 4 7_446 ?
Cr2 Nb2 Nb1 90.485(4) . 7_446 ?
S1 Nb2 Nb1 48.499(11) . 7_556 ?
S1 Nb2 Nb1 47.761(11) 7_556 7_556 ?
S1 Nb2 Nb1 132.238(11) 2 7_556 ?
S1 Nb2 Nb1 90.378(9) 3 7_556 ?
S1 Nb2 Nb1 131.500(11) 9_556 7_556 ?
S1 Nb2 Nb1 89.623(9) 8_556 7_556 ?
Cr2 Nb2 Nb1 89.515(4) 4 7_556 ?
Cr2 Nb2 Nb1 90.485(4) . 7_556 ?
Nb1 Nb2 Nb1 120.0 7_446 7_556 ?
S1 Nb2 Nb1 131.501(11) . 1_445 ?
S1 Nb2 Nb1 132.239(11) 7_556 1_445 ?
S1 Nb2 Nb1 47.762(11) 2 1_445 ?
S1 Nb2 Nb1 89.622(9) 3 1_445 ?
S1 Nb2 Nb1 48.500(11) 9_556 1_445 ?
S1 Nb2 Nb1 90.377(9) 8_556 1_445 ?
Cr2 Nb2 Nb1 90.485(4) 4 1_445 ?
Cr2 Nb2 Nb1 89.515(4) . 1_445 ?
Nb1 Nb2 Nb1 60.0 7_446 1_445 ?
Nb1 Nb2 Nb1 180.0 7_556 1_445 ?
S1 Nb2 Nb1 47.761(11) . . ?
S1 Nb2 Nb1 48.500(11) 7_556 . ?
S1 Nb2 Nb1 89.622(9) 2 . ?
S1 Nb2 Nb1 131.500(11) 3 . ?
S1 Nb2 Nb1 90.378(9) 9_556 . ?
S1 Nb2 Nb1 132.239(11) 8_556 . ?
Cr2 Nb2 Nb1 90.485(4) 4 . ?
Cr2 Nb2 Nb1 89.515(4) . . ?
Nb1 Nb2 Nb1 180.0 7_446 . ?
Nb1 Nb2 Nb1 60.0 7_556 . ?
Nb1 Nb2 Nb1 120.0 1_445 . ?
S1 Cr1 S1 179.718(16) 12 3_665 ?
S1 Cr1 S1 87.668(18) 12 11_655 ?
S1 Cr1 S1 92.53(2) 3_665 11_655 ?
S1 Cr1 S1 92.53(2) 12 2_655 ?
S1 Cr1 S1 87.668(18) 3_665 2_655 ?
S1 Cr1 S1 92.14(2) 11_655 2_655 ?
S1 Cr1 S1 87.668(18) 12 10_665 ?
S1 Cr1 S1 92.14(2) 3_665 10_665 ?
S1 Cr1 S1 87.668(18) 11_655 10_665 ?
S1 Cr1 S1 179.718(17) 2_655 10_665 ?
S1 Cr1 S1 92.14(2) 12 . ?
S1 Cr1 S1 87.668(18) 3_665 . ?
S1 Cr1 S1 179.717(16) 11_655 . ?
S1 Cr1 S1 87.667(18) 2_655 . ?
S1 Cr1 S1 92.53(2) 10_665 . ?
S1 Cr1 Nb1 53.103(12) 12 4_664 ?
S1 Cr1 Nb1 126.897(12) 3_665 4_664 ?
S1 Cr1 Nb1 53.103(12) 11_655 4_664 ?
S1 Cr1 Nb1 126.898(12) 2_655 4_664 ?
S1 Cr1 Nb1 53.102(12) 10_665 4_664 ?
S1 Cr1 Nb1 126.897(12) . 4_664 ?
S1 Cr1 Nb1 126.897(12) 12 7_556 ?
S1 Cr1 Nb1 53.103(12) 3_665 7_556 ?
S1 Cr1 Nb1 126.898(12) 11_655 7_556 ?
S1 Cr1 Nb1 53.103(12) 2_655 7_556 ?
S1 Cr1 Nb1 126.897(12) 10_665 7_556 ?
S1 Cr1 Nb1 53.102(12) . 7_556 ?
Nb1 Cr1 Nb1 180.0 4_664 7_556 ?
Cr2 S1 Cr1 87.761(17) . . ?
Cr2 S1 Cr3 87.667(17) . . ?
Cr1 S1 Cr3 87.573(17) . . ?
Cr2 S1 Nb1 133.523(16) . . ?
Cr1 S1 Nb1 133.300(14) . . ?
Cr3 S1 Nb1 75.753(11) . . ?
Cr2 S1 Nb2 76.554(9) . . ?
Cr1 S1 Nb2 133.885(16) . . ?
Cr3 S1 Nb2 133.659(16) . . ?
Nb1 S1 Nb2 84.225(17) . . ?
Cr2 S1 Nb1 134.033(16) . 7_556 ?
Cr1 S1 Nb1 76.903(12) . 7_556 ?
Cr3 S1 Nb1 133.584(14) . 7_556 ?
Nb1 S1 Nb1 83.778(16) . 7_556 ?
Nb2 S1 Nb1 83.565(16) . 7_556 ?
S1 Cr2 S1 92.54(2) 10 2 ?
S1 Cr2 S1 87.562(17) 10 12 ?
S1 Cr2 S1 179.858(19) 2 12 ?
S1 Cr2 S1 87.562(17) 10 11 ?
S1 Cr2 S1 92.34(2) 2 11 ?
S1 Cr2 S1 87.562(17) 12 11 ?
S1 Cr2 S1 92.34(2) 10 3 ?
S1 Cr2 S1 87.562(17) 2 3 ?
S1 Cr2 S1 92.54(2) 12 3 ?
S1 Cr2 S1 179.858(19) 11 3 ?
S1 Cr2 S1 179.858(18) 10 . ?
S1 Cr2 S1 87.562(17) 2 . ?
S1 Cr2 S1 92.34(2) 12 . ?
S1 Cr2 S1 92.54(2) 11 . ?
S1 Cr2 S1 87.562(17) 3 . ?
S1 Cr2 Nb2 53.029(12) 10 4_554 ?
S1 Cr2 Nb2 126.971(12) 2 4_554 ?
S1 Cr2 Nb2 53.029(12) 12 4_554 ?
S1 Cr2 Nb2 53.029(12) 11 4_554 ?
S1 Cr2 Nb2 126.971(12) 3 4_554 ?
S1 Cr2 Nb2 126.971(12) . 4_554 ?
S1 Cr2 Nb2 126.971(12) 10 . ?
S1 Cr2 Nb2 53.029(12) 2 . ?
S1 Cr2 Nb2 126.971(12) 12 . ?
S1 Cr2 Nb2 126.971(12) 11 . ?
S1 Cr2 Nb2 53.029(12) 3 . ?
S1 Cr2 Nb2 53.029(12) . . ?
Nb2 Cr2 Nb2 180.0 4_554 . ?
S1 Cr3 S1 179.859(17) 11 2_665 ?
S1 Cr3 S1 87.774(17) 11 12_565 ?
S1 Cr3 S1 92.32(2) 2_665 12_565 ?
S1 Cr3 S1 92.32(2) 11 3_565 ?
S1 Cr3 S1 87.774(17) 2_665 3_565 ?
S1 Cr3 S1 92.13(2) 12_565 3_565 ?
S1 Cr3 S1 87.774(17) 11 10_665 ?
S1 Cr3 S1 92.13(2) 2_665 10_665 ?
S1 Cr3 S1 87.774(17) 12_565 10_665 ?
S1 Cr3 S1 179.859(17) 3_565 10_665 ?
S1 Cr3 S1 92.13(2) 11 . ?
S1 Cr3 S1 87.774(17) 2_665 . ?
S1 Cr3 S1 179.859(16) 12_565 . ?
S1 Cr3 S1 87.774(17) 3_565 . ?
S1 Cr3 S1 92.32(2) 10_665 . ?
S1 Cr3 Nb1 126.824(12) 11 . ?
S1 Cr3 Nb1 53.176(12) 2_665 . ?
S1 Cr3 Nb1 126.824(12) 12_565 . ?
S1 Cr3 Nb1 53.176(12) 3_565 . ?
S1 Cr3 Nb1 126.824(12) 10_665 . ?
S1 Cr3 Nb1 53.176(12) . . ?
S1 Cr3 Nb1 53.176(12) 11 10_665 ?
S1 Cr3 Nb1 126.824(12) 2_665 10_665 ?
S1 Cr3 Nb1 53.177(12) 12_565 10_665 ?
S1 Cr3 Nb1 126.824(12) 3_565 10_665 ?
S1 Cr3 Nb1 53.176(12) 10_665 10_665 ?
S1 Cr3 Nb1 126.824(12) . 10_665 ?
Nb1 Cr3 Nb1 180.0 . 10_665 ?
 
_refine_diff_density_max    0.503
_refine_diff_density_min   -0.495
_refine_diff_density_rms    0.124

_shelx_res_file
;

    182.res created by SHELXL-2014/7


TITL 182 in P6(3)22
CELL 0.71073   5.74530   5.74530  12.06760  90.0000  90.0000 120.0000
ZERR    4.00   0.00010   0.00010   0.00020   0.0000   0.0000   0.0000
LATT -1
SYMM -Y, X-Y, Z
SYMM -X+Y, -X, Z
SYMM -X, -Y, 0.5+Z
SYMM Y, -X+Y, 0.5+Z
SYMM X-Y, X, 0.5+Z
SYMM Y, X, -Z
SYMM X-Y, -Y, -Z
SYMM -X, -X+Y, -Z
SYMM -Y, -X, 0.5-Z
SYMM -X+Y, Y, 0.5-Z
SYMM X, X-Y, 0.5-Z
SFAC S CR NB
UNIT 12 3 6
TEMP 23.000
L.S. 10
BOND $H
LIST 4

acta
EADP CR1 Cr2 Cr3
FMAP 2
PLAN 20
WGHT    0.021400    0.033000
EXTI    0.006167
FVAR       0.12207
NB1   3    0.333333    0.666667    0.497671    10.33333    0.00334    0.00334 =
         0.00514    0.00000    0.00000    0.00167
NB2   3    0.000000    0.000000    0.500000    10.16667    0.00326    0.00326 =
         0.00496    0.00000    0.00000    0.00163
CR1   2    0.666667    0.333333    0.250000     0.13806    0.00326    0.00326 =
         0.00361    0.00000    0.00000    0.00163
S1    1    0.332741    0.332144    0.369144    11.00000    0.00458    0.00449 =
         0.00602   -0.00009    0.00034    0.00230
CR2   2    0.000000    0.000000    0.250000     0.00935    0.00326    0.00326 =
         0.00361    0.00000    0.00000    0.00163
CR3   2    0.333333    0.666667    0.250000     0.00404    0.00326    0.00326 =
         0.00361    0.00000    0.00000    0.00163
HKLF 4

REM  182 in P6(3)22
REM R1 =  0.0155 for     360 Fo > 4sig(Fo)  and  0.0158 for all     363 data
REM     21 parameters refined using      0 restraints

END

WGHT      0.0215      0.0325

REM Highest difference peak  0.503,  deepest hole -0.495,  1-sigma level  0.124
Q1    1   0.3333  0.6667  0.5490  10.33333  0.05    0.50
Q2    1   0.5980  0.3750  0.3714  11.00000  0.05    0.45
Q3    1   0.0000  0.0000  0.4497  10.33333  0.05    0.45
Q4    1   0.2925  0.5524  0.3608  11.00000  0.05    0.43
Q5    1   0.3333  0.6667  0.4427  10.33333  0.05    0.43
Q6    1   0.0833  0.1161  0.3629  11.00000  0.05    0.43
Q7    1   0.1757  0.3360  0.3905  11.00000  0.05    0.38
Q8    1   0.4761  0.3066  0.4310  11.00000  0.05    0.29
Q9    1   0.4962  0.3247  0.3308  11.00000  0.05    0.28
Q10   1   0.1810  0.3228  0.4813  11.00000  0.05    0.26
Q11   1   0.1708  0.1719  0.4290  11.00000  0.05    0.25
Q12   1   0.3763  0.4479  0.5008  11.00000  0.05    0.25
Q13   1   0.2387  0.2387  0.5000  10.50000  0.05    0.25
Q14   1   0.4692  0.4951  0.3919  11.00000  0.05    0.23
Q15   1   0.3223  0.4866  0.4283  11.00000  0.05    0.22
Q16   1   0.4908  0.4961  0.4669  11.00000  0.05    0.22
Q17   1   0.3623  0.3356  0.2992  11.00000  0.05    0.20
Q18   1   0.3188  0.1649  0.4682  11.00000  0.05    0.20
Q19   1   0.1982  0.3670  0.3029  11.00000  0.05    0.20
Q20   1   0.5726  0.4494  0.3333  11.00000  0.05    0.19
;
_shelx_res_checksum    8888

_shelx_hkl_file
;
   1   0   0    3.42    0.15
   0   1   0    2.96    0.17
  -1   1   0    3.73    0.17
  -1   1   0    3.70    0.16
   1  -2   0  321.20   13.58
   1  -2   0  319.54   13.54
  -1   2   0  319.38   13.64
  -1   2   0  309.67   13.58
   1   1   0  320.01   13.56
   1   1   0  316.21   13.60
  -1  -1   0  316.22   13.60
  -2   1   0  321.62   13.60
   0   2   0    2.95    0.18
   0   2   0    3.03    0.17
   0  -2   0    3.00    0.17
   0  -2   0    3.06    0.17
  -2   2   0    2.97    0.16
   2   0   0    2.84    0.15
  -2   0   0    3.14    0.18
  -2   2   0    3.04    0.16
   2   0   0    3.00    0.14
  -2   3   0    2.15    0.14
  -2   3   0    2.07    0.15
  -3   1   0    2.14    0.14
   2  -3   0    2.20    0.14
  -1  -2   0    2.12    0.13
   1   2   0    2.03    0.15
  -3   1   0    2.32    0.15
   1   2   0    1.97    0.14
  -2   3   0    2.20    0.15
  -1  -2   0    2.18    0.14
   2  -3   0    2.17    0.14
   2   1   0    2.11    0.12
  -2  -1   0    2.04    0.17
   1  -3   0    1.99    0.14
  -1   3   0    2.28    0.16
   1  -3   0    2.21    0.15
  -3   2   0    2.10    0.11
  -2  -1   0    2.07    0.16
  -3   2   0    2.19    0.15
  -1   3   0    1.98    0.14
  -3   2   0    2.23    0.14
  -3   2   0    2.25    0.19
  -3   2   0    2.17    0.11
   2   1   0    2.09    0.14
   0   3   0  969.66   40.65
  -3   0   0  970.27   40.74
  -3   0   0  820.02   40.88
   0   3   0  963.40   40.76
   0  -3   0  975.70   40.65
   3  -3   0  956.79   40.62
  -3   3   0  915.55   40.95
  -3   3   0 1000.00   40.65
  -3   3   0  952.13   40.66
   0  -3   0  979.71   40.69
   0   3   0  975.71   40.67
   3  -3   0  964.94   40.59
  -4   1   0    1.16    0.11
   1   3   0    1.09    0.10
  -3   4   0    1.21    0.11
  -3   4   0    1.22    0.16
  -3   4   0    1.13    0.12
   1   3   0    1.28    0.11
   1   3   0    1.05    0.12
  -4   1   0    1.20    0.12
  -1  -3   0    1.03    0.10
  -3   4   0    1.15    0.10
  -3   4   0    1.24    0.12
   3  -4   0    1.23    0.11
   3  -4   0    1.22    0.11
  -4   1   0    1.09    0.22
  -1  -3   0    1.27    0.11
  -2   4   0  205.52    8.20
  -2   4   0  193.04    8.18
  -2  -2   0  193.41    8.15
  -2  -2   0  192.83    8.16
  -2   4   0  191.23    8.19
   2  -4   0  189.53    8.18
  -2   4   0  189.76    8.21
  -4   2   0  173.20    8.35
  -2  -2   0  189.35    8.23
  -4   2   0  184.95    8.18
  -4   2   0  200.93    8.18
   2   2   0  187.54    8.16
   2   2   0  191.99    8.20
   2  -4   0  190.12    8.18
  -4   3   0    1.31    0.12
  -4   3   0    1.25    0.09
   1  -4   0    1.14    0.11
  -1   4   0    1.25    0.11
   4  -3   0    1.20    0.09
  -1   4   0    1.10    0.13
   4  -3   0    1.25    0.09
  -4   3   0    1.29    0.10
  -3  -1   0    1.27    0.11
  -3  -1   0    1.24    0.09
  -1   4   0    0.99    0.11
  -4   3   0    1.11    0.16
   3   1   0    1.23    0.09
  -3  -1   0    1.19    0.13
  -4   3   0    1.24    0.09
   1  -4   0    1.12    0.11
   3   1   0    1.09    0.10
  -3  -1   0    1.19    0.14
   0  -4   0    0.84    0.11
  -4   4   0    0.96    0.11
   4  -4   0    0.88    0.09
  -4   0   0    0.93    0.09
  -4   4   0    1.11    0.12
   0   4   0    0.75    0.12
   0   4   0    0.88    0.11
  -4   0   0    0.89    0.11
  -4   4   0    0.94    0.15
  -4   0   0    0.80    0.13
   0  -4   0    0.95    0.10
   0   4   0    0.74    0.11
  -4   4   0    0.95    0.09
   4  -4   0    0.77    0.09
  -4   4   0    0.83    0.09
  -5   1   0  128.00    5.58
  -5   1   0  130.52    5.77
  -4   5   0  130.23    5.60
   4  -5   0  125.96    5.57
   4  -5   0  127.38    5.58
  -5   1   0  133.28    5.62
  -1  -4   0  129.81    5.59
  -4   5   0  133.18    5.58
   1   4   0  128.54    5.64
   1   4   0  124.93    5.59
   1   4   0  126.44    5.58
  -1  -4   0  127.92    5.58
  -4   5   0  135.03    5.63
   2   3   0    1.20    0.14
  -2  -3   0    1.12    0.11
  -5   2   0    1.28    0.13
  -3   5   0    1.30    0.19
   3  -5   0    1.26    0.12
   2   3   0    1.27    0.12
  -3   5   0    1.20    0.14
   3  -5   0    1.37    0.13
   2   3   0    1.24    0.11
  -5   2   0    1.48    0.13
  -5   2   0    0.61    0.22
  -3   5   0    1.15    0.12
  -3   5   0    1.26    0.12
  -2  -3   0    1.28    0.11
  -3   5   0    1.71    0.15
  -2   5   0    1.29    0.13
  -3  -2   0    1.27    0.15
   2  -5   0    1.47    0.14
   3   2   0    1.22    0.11
   3   2   0    1.19    0.13
  -3  -2   0    1.35    0.11
  -5   3   0    1.36    0.26
  -5   3   0    1.36    0.14
  -2   5   0    1.19    0.12
  -2   5   0    1.26    0.15
   2  -5   0    1.28    0.13
  -5   3   0    1.33    0.12
  -1   5   0  134.26    5.55
  -1   5   0  127.93    5.59
  -4  -1   0  117.25    5.61
  -4  -1   0  128.84    5.59
   5  -4   0  134.66    5.50
   1  -5   0  128.11    5.54
  -5   4   0  130.04    5.71
  -1   5   0  128.57    5.54
  -5   4   0  127.09    5.56
   1  -5   0  121.94    5.53
  -5   0   0    1.19    0.18
  -5   5   0    1.26    0.25
   0   5   0    0.91    0.14
   0  -5   0    0.92    0.14
  -5   5   0    1.21    0.17
   0   5   0    1.10    0.15
   0  -5   0    1.06    0.14
   5  -5   0    1.17    0.11
   0   5   0    0.99    0.17
  -5   5   0    1.18    0.11
   5  -5   0    1.11    0.11
   5  -5   0    1.11    0.12
  -5   0   0    1.08    0.16
  -5   6   0    0.73    0.12
  -6   1   0    0.82    0.13
   5  -6   0    0.87    0.13
  -5   6   0    0.65    0.19
   1   5   0    0.62    0.12
   5  -6   0    1.00    0.14
   5  -6   0    0.76    0.12
  -6   1   0    0.75    0.19
  -6   1   0    0.69    0.13
  -1  -5   0    0.59    0.12
   1   5   0    0.70    0.15
  -1  -5   0    0.94    0.14
  -5   6   0    0.91    0.16
  -4   6   0    0.64    0.18
  -4   6   0    0.81    0.14
  -4   6   0    0.67    0.12
  -6   2   0    0.88    0.24
   4  -6   0    0.63    0.11
  -2  -4   0    0.52    0.10
  -6   2   0    0.74    0.13
   4  -6   0    0.65    0.11
   2   4   0    0.61    0.13
  -2  -4   0    0.65    0.11
  -4   6   0    0.57    0.12
  -6   2   0    0.65    0.11
   2   4   0    0.70    0.12
   3  -6   0  547.16   23.33
   3   3   0  562.77   23.36
  -6   3   0  544.17   23.35
   3   3   0  552.61   23.32
  -3   6   0  552.52   23.39
  -3   6   0  533.33   23.34
   3  -6   0  538.30   23.34
   2  -6   0    0.76    0.13
  -2   6   0    0.59    0.13
  -6   4   0    0.95    0.26
  -2   6   0    0.51    0.11
  -6   4   0    0.77    0.14
   2  -6   0    0.66    0.12
  -1   6   0    0.86    0.17
  -5  -1   0    0.76    0.16
  -6   5   0    0.79    0.14
  -6   5   0    0.74    0.21
   1  -6   0    0.67    0.12
  -1   6   0    0.70    0.13
   1  -6   0    0.62    0.12
   6  -6   0  462.66   18.92
   0  -6   0  433.40   18.83
  -6   0   0  445.73   18.89
   0   6   0  441.86   18.91
  -6   6   0  443.04   18.88
  -6   6   0  415.61   19.06
   0  -6   0  444.48   18.84
   0   6   0  435.81   18.84
   1   6   0    0.32    0.12
  -1  -6   0    0.29    0.10
  -6   7   0    0.39    0.17
   1   6   0    0.33    0.10
   6  -7   0    0.38    0.11
  -6   7   0    0.44    0.12
  -1  -6   0    0.25    0.09
  -5   7   0   75.31    3.44
   5  -7   0   80.46    3.44
   5  -7   0   76.83    3.44
  -2  -5   0   77.18    3.43
  -7   2   0   76.88    3.44
  -2  -5   0   77.95    3.44
   2   5   0   78.97    3.45
   2   5   0   76.97    3.51
  -5   7   0   75.43    3.70
   5  -7   0   78.78    3.45
   4  -7   0    0.26    0.08
   4  -7   0    0.36    0.10
  -7   3   0    0.41    0.11
  -4   7   0    0.33    0.09
   3   4   0    0.25    0.10
  -4   7   0    0.28    0.14
  -4   7   0    0.39    0.11
   3  -7   0    0.23    0.09
  -7   4   0    0.33    0.10
  -3   7   0    0.24    0.10
  -3   7   0    0.41    0.11
   3  -7   0    0.23    0.09
  -7   4   0    0.30    0.20
  -7   5   0   77.50    3.53
  -2   7   0   76.94    3.51
   2  -7   0   78.80    3.51
  -2   7   0   76.17    3.57
  -7   5   0   80.38    3.91
   2  -7   0   80.15    3.51
  -7   6   0    0.40    0.13
  -7   6   0    0.38    0.19
  -1   7   0    0.27    0.10
   1  -7   0    0.36    0.12
  -1   7   0    0.32    0.12
   1  -7   0    0.45    0.12
   0   7   0    0.25    0.10
  -7   7   0    0.19    0.10
  -7   7   0    0.37    0.18
   0  -7   0    0.30    0.11
   0  -7   0    0.10    0.07
   0   7   0    0.22    0.11
  -5   8   0    0.78    0.16
   5  -8   0    0.61    0.14
  -8   3   0    0.82    0.16
   3   5   0    0.44    0.14
   5  -8   0    0.60    0.14
   5  -8   0    0.73    0.16
  -5   8   0    0.69    0.24
  -8   4   0   63.48    2.93
   4  -8   0   66.56    2.92
  -4   8   0   65.73    2.99
   4  -8   0   65.06    2.93
   4  -8   0   63.18    2.92
  -4   8   0   63.14    2.93
  -4   8   0   61.14    3.18
   3  -8   0    0.61    0.15
   3  -8   0    0.68    0.15
  -3   8   0    0.70    0.15
  -8   5   0    0.58    0.15
  -3   8   0    0.56    0.21
   3  -8   0    0.55    0.14
  -3   8   0    0.67    0.18
   0   0   1    0.00    0.01
   0   0   1    0.00    0.00
  -1   0  -1   13.35    0.60
  -1   0   1   12.66    0.52
  -1   1   1   13.12    0.53
   0   1   1   11.31    0.53
   1   0   1   11.27    0.52
   0   1   1   11.70    0.54
  -1   1   1   12.48    0.52
   1   0   1   11.10    0.51
   0  -1   1   11.25    0.53
  -1   0   1   11.89    0.51
  -1  -1  -1  109.55    4.66
   1  -2  -1  110.82    4.64
  -2   1  -1  103.23    4.65
   1  -2  -1  109.46    4.64
   2  -1   1  105.77    4.42
  -2   1   1   98.64    4.43
  -1   2   1  107.63    4.45
   1   1   1  102.88    4.43
  -1  -1   1  102.18    4.43
   2  -1   1  100.98    4.41
   1  -2   1   98.96    4.43
  -1   2   1  108.26    4.44
   1   1   1  105.17    4.44
   2  -2  -1    8.51    0.40
   0  -2  -1    8.27    0.40
  -2   0  -1    8.46    0.42
   0  -2  -1    8.73    0.42
   0  -2  -1    8.59    0.41
   0  -2   1    7.59    0.38
  -2   2   1    8.27    0.38
   0   2   1    8.16    0.39
   0  -2   1    7.37    0.38
  -2   2   1    8.04    0.37
  -2   0   1    8.01    0.39
   2   0   1    8.12    0.35
  -2   0   1    7.59    0.35
   2  -2   1    7.68    0.37
   2   0   1    8.77    0.37
   2  -2   1    8.07    0.37
   0   2   1    8.34    0.41
   0  -2   1    8.06    0.38
  -1  -2  -1    6.92    0.33
  -3   1  -1    6.18    0.35
  -1  -2  -1    6.85    0.37
  -2   3  -1    6.54    0.35
  -2   3  -1    6.33    0.35
   1   2  -1    6.61    0.35
   2  -3  -1    6.78    0.34
  -1  -2  -1    6.70    0.33
  -3   1  -1    6.80    0.35
   2  -3  -1    6.31    0.33
   1   2   1    6.64    0.33
  -2   3   1    6.79    0.34
  -3   1   1    6.60    0.33
  -1  -2   1    6.59    0.32
   2  -3   1    6.45    0.32
  -3   1   1    6.31    0.32
   2  -3   1    6.01    0.32
  -2   3   1    6.40    0.33
  -1  -2   1    6.20    0.32
  -2   3   1    6.38    0.34
  -1  -2   1    6.49    0.32
  -2   3   1    6.45    0.40
   1   2   1    6.53    0.35
  -1   3  -1    6.34    0.35
  -1   3  -1    6.32    0.35
  -3   2  -1    6.58    0.34
  -3   2  -1    6.20    0.50
  -3   2  -1    6.32    0.30
   1  -3  -1    6.98    0.34
  -2  -1  -1    6.62    0.36
  -3   2  -1    6.20    0.33
   1  -3  -1    6.83    0.34
  -3   2  -1    6.53    0.30
   2   1  -1    6.40    0.33
  -3   2   1    6.73    0.41
  -3   2   1    6.52    0.30
  -1   3   1    6.66    0.36
  -1   3   1    6.56    0.34
  -3   2   1    6.95    0.30
   1  -3   1    6.14    0.33
  -2  -1   1    6.47    0.39
   1  -3   1    6.09    0.33
  -1   3   1    6.45    0.36
  -2  -1   1    6.32    0.35
   2   1   1    6.37    0.33
  -2  -1   1    6.15    0.31
  -3   2   1    6.64    0.31
   2   1   1    6.56    0.31
   0  -3  -1    0.19    0.08
  -3   3  -1    0.15    0.07
   3  -3   1    0.09    0.05
  -3   3   1   -0.02    0.07
   0   3   1   -0.16    0.05
   0   3   1    0.08    0.06
  -1  -3  -1    4.20    0.26
   3  -4  -1    4.57    0.26
   1   3  -1    4.61    0.27
  -1  -3  -1    4.48    0.26
  -3   4  -1    4.29    0.26
  -3   4  -1    4.59    0.26
   3  -4  -1    5.00    0.27
  -4   1  -1    4.59    0.26
  -3   4  -1    4.67    0.35
  -4   1  -1    4.74    0.37
   1   3  -1    4.44    0.29
   1   3  -1    4.62    0.26
  -4   1  -1    4.39    0.28
  -3   4  -1    4.65    0.28
  -3   4  -1    4.65    0.28
  -4   1   1    4.25    0.26
  -3   4   1    4.69    0.27
   3  -4   1    4.43    0.25
  -3   4   1    4.60    0.28
   1   3   1    4.56    0.29
  -1  -3   1    4.38    0.26
  -4   1   1    4.49    0.26
   1   3   1    4.44    0.25
  -3   4   1    4.43    0.26
   3  -4   1    4.33    0.26
  -3   4   1    4.41    0.34
   1   3   1    4.62    0.26
  -1  -3   1    4.24    0.25
  -2  -2  -1   49.28    2.16
  -2  -2  -1   47.85    2.08
   2  -4  -1   48.73    2.11
  -2   4  -1   47.04    2.14
  -4   2  -1   44.79    2.26
   2   2  -1   47.74    2.12
  -2  -2  -1   48.27    2.08
  -4   2  -1   47.75    2.11
   2  -4  -1   49.93    2.11
  -4   2  -1   47.08    2.10
  -2   4  -1   46.43    2.11
  -2   4  -1   47.62    2.11
   2   2  -1   46.28    2.09
   4  -2   1   46.72    2.07
  -2  -2   1   46.85    2.07
  -2   4   1   46.82    2.13
  -4   2   1   47.65    2.11
   2  -4   1   46.48    2.10
  -2   4   1   47.06    2.10
  -2  -2   1   49.71    2.10
  -4   2   1   47.19    2.08
   2   2   1   46.78    2.08
   2   2   1   46.44    2.11
  -4   2   1   48.12    2.30
  -2   4   1   51.59    2.12
  -2  -2   1   48.05    2.07
   2  -4   1   45.74    2.10
  -1   4  -1    4.39    0.27
   1  -4  -1    4.43    0.27
   4  -3  -1    4.63    0.24
  -4   3  -1    4.60    0.24
  -3  -1  -1    5.10    0.24
  -1   4  -1    4.53    0.30
   3   1  -1    4.59    0.24
   3   1  -1    4.60    0.26
  -3  -1  -1    4.47    0.30
  -1   4  -1    4.42    0.28
  -4   3  -1    4.57    0.24
  -4   3  -1    4.62    0.35
   4  -3  -1    4.76    0.24
  -4   3  -1    4.82    0.27
  -4   3  -1    4.40    0.28
  -4   3   1    4.61    0.23
  -1   4   1    4.44    0.27
   4  -3   1    4.43    0.24
   4  -3   1    4.43    0.23
   1  -4   1    4.10    0.26
  -3  -1   1    4.20    0.25
  -1   4   1    4.58    0.30
  -4   3   1    4.46    0.28
   3   1   1    4.42    0.25
  -1   4   1    4.72    0.27
  -3  -1   1    4.09    0.32
   3   1   1    4.54    0.23
  -4   3   1    4.73    0.23
  -4   3   1    4.66    0.35
  -3  -1   1    4.27    0.29
  -3  -1   1    4.71    0.23
  -4   3   1    4.98    0.24
   1  -4   1    4.51    0.27
   4  -4  -1    3.97    0.23
  -4   4  -1    3.96    0.33
  -4   4  -1    4.61    0.29
   4  -4  -1    4.00    0.23
  -4   4  -1    3.69    0.23
  -4   4  -1    3.80    0.23
   4  -4  -1    3.78    0.23
  -4   0  -1    4.21    0.28
   0  -4  -1    3.85    0.25
  -4   4  -1    4.15    0.23
   0   4  -1    3.88    0.28
  -4   4  -1    3.54    0.25
  -4   0  -1    3.76    0.28
   0   4  -1    3.89    0.25
  -4   0  -1    3.94    0.22
   0  -4  -1    3.92    0.25
   0   4  -1    3.87    0.25
  -4   0   1    4.33    0.34
  -4   4   1    3.65    0.22
  -4   4   1    3.74    0.32
   4  -4   1    3.62    0.22
   4  -4   1    3.80    0.22
  -4   4   1    3.93    0.26
  -4   0   1    4.05    0.24
   0  -4   1    3.64    0.24
   0   4   1    4.02    0.24
   0  -4   1    3.94    0.25
  -4   0   1    3.78    0.26
   0   4   1    3.95    0.25
  -4   4   1    3.86    0.23
   0   4   1    3.96    0.28
  -4   5  -1   35.19    1.61
  -4   5  -1   36.69    1.79
  -4   5  -1   37.96    1.66
  -4   5  -1   35.19    1.61
   1   4  -1   34.55    1.62
   4  -5  -1   34.25    1.61
  -5   1  -1   35.48    1.73
  -1  -4  -1   35.60    1.62
  -5   1  -1   37.40    1.66
  -5   1  -1   36.00    1.60
   1   4  -1   35.52    1.62
  -1  -4  -1   34.66    1.62
   4  -5  -1   35.50    1.61
  -4   5  -1   36.15    1.64
   4  -5  -1   36.23    1.60
   1   4  -1   34.50    1.67
  -4   5   1   36.29    1.61
  -1  -4   1   35.13    1.58
  -5   1   1   35.61    1.58
   4  -5   1   34.08    1.57
  -1  -4   1   34.35    1.58
   1   4   1   33.38    1.62
  -5   1   1   34.85    1.59
  -4   5   1   34.08    1.59
  -4   5   1   34.98    1.57
  -5   1   1   34.51    1.80
   4  -5   1   33.38    1.56
   1   4   1   32.74    1.58
  -4   5   1   38.24    1.76
  -5   2  -1    3.11    0.22
  -2  -3  -1    2.94    0.19
  -3   5  -1    3.11    0.24
   2   3  -1    2.86    0.23
  -2  -3  -1    2.98    0.20
  -3   5  -1    3.16    0.21
   3  -5  -1    3.06    0.21
  -5   2  -1    2.80    0.21
   3  -5  -1    2.91    0.21
  -3   5  -1    2.98    0.22
   2   3  -1    3.07    0.20
   2   3  -1    3.00    0.20
  -2  -3   1    2.89    0.19
  -3   5   1    3.21    0.23
  -2  -3   1    3.03    0.19
   2   3   1    2.95    0.23
  -5   2   1    2.86    0.20
  -3   5   1    2.93    0.30
   2   3   1    3.05    0.20
   3  -5   1    2.64    0.20
  -5   2   1    2.89    0.21
  -3   5   1    3.17    0.23
   3  -5   1    2.94    0.21
  -5   2   1    1.80    0.39
  -3   5   1    3.00    0.21
  -3  -2  -1    3.13    0.26
   3   2  -1    3.17    0.22
   2  -5  -1    2.93    0.22
  -5   3  -1    3.25    0.22
  -2   5  -1    2.89    0.22
  -2   5  -1    2.97    0.25
  -5   3  -1    3.01    0.22
   2  -5  -1    2.96    0.22
   3   2  -1    3.03    0.19
  -5   3  -1    3.36    0.34
   3   2  -1    3.20    0.20
  -2   5  -1    2.90    0.22
  -3  -2  -1    3.02    0.19
  -2   5   1    3.13    0.22
  -5   3   1    2.73    0.22
  -2   5   1    3.14    0.24
  -3  -2   1    3.17    0.19
   3   2   1    3.11    0.22
   2  -5   1    2.81    0.21
   3   2   1    2.99    0.19
   2  -5   1    2.92    0.21
   5  -3   1    2.84    0.19
  -5   3   1    3.25    0.35
  -4  -1  -1   35.83    1.69
   5  -4  -1   36.32    1.60
  -1   5  -1   35.91    1.65
   1  -5  -1   35.47    1.64
  -5   4  -1   36.04    1.67
   1  -5  -1   35.32    1.64
  -1   5  -1   36.50    1.64
  -5   4  -1   38.30    1.81
  -1   5  -1   35.85    1.70
  -5   4  -1   34.03    1.65
  -1   5   1   35.08    1.59
   1  -5   1   34.87    1.59
  -4  -1   1   34.99    1.62
  -1   5   1   34.08    1.63
  -4  -1   1   33.36    1.69
   1  -5   1   34.17    1.59
  -5   4   1   35.48    1.61
  -4  -1   1   33.66    1.55
   5  -4   1   35.53    1.54
  -5   4   1   35.89    1.76
   0  -5  -1    2.30    0.19
   0   5  -1    2.32    0.19
  -5   0  -1    1.94    0.20
  -5   5  -1    2.29    0.17
   0   5  -1    2.05    0.19
   5  -5  -1    2.29    0.18
   5  -5  -1    2.27    0.17
  -5   5  -1    2.16    0.20
  -5   0  -1    2.16    0.22
   0  -5  -1    2.24    0.19
   5  -5  -1    2.61    0.18
   0   5  -1    2.23    0.22
  -5   5  -1    2.49    0.28
  -5   5   1    2.38    0.21
  -5   5   1    2.15    0.16
   5  -5   1    2.28    0.17
  -5   5   1    2.45    0.28
   0  -5   1    2.31    0.19
   0   5   1    2.25    0.22
  -5   0   1    2.27    0.18
   0  -5   1    2.41    0.20
   5  -5   1    2.39    0.17
  -5   0   1    2.20    0.20
   0   5   1    1.97    0.18
  -5   0   1    2.27    0.26
  -5   6  -1    1.89    0.20
   1   5  -1    2.18    0.23
  -5   6  -1    1.89    0.17
  -6   1  -1    1.89    0.20
   1   5  -1    1.78    0.18
   5  -6  -1    2.13    0.18
  -1  -5  -1    1.82    0.18
   5  -6  -1    2.38    0.18
  -5   6  -1    2.21    0.29
   1   5  -1    1.93    0.19
  -1  -5  -1    1.81    0.18
   5  -6  -1    1.86    0.17
  -6   1   1    2.00    0.27
  -5   6   1    2.03    0.17
   1   5   1    1.85    0.21
  -5   6   1    1.64    0.26
  -5   6   1    1.83    0.20
  -1  -5   1    2.08    0.18
   5  -6   1    1.54    0.16
  -1  -5   1    1.83    0.18
   1   5   1    1.59    0.17
  -6   1   1    1.88    0.19
   5  -6   1    1.79    0.16
  -6   1   1    1.97    0.18
  -4   6  -1    2.24    0.29
  -4   6  -1    2.26    0.19
   2   4  -1    2.09    0.18
   2   4  -1    2.22    0.22
   2   4  -1    2.23    0.18
  -2  -4  -1    2.22    0.18
  -6   2  -1    2.27    0.20
  -2  -4  -1    2.26    0.18
   4  -6  -1    2.22    0.19
  -4   6  -1    2.23    0.21
   4  -6  -1    1.94    0.18
   4  -6  -1    2.42    0.20
  -4   6  -1    2.37    0.19
  -6   2  -1    2.10    0.19
  -6   2   1    2.42    0.20
  -2  -4   1    2.24    0.18
   4  -6   1    2.22    0.19
  -4   6   1    2.38    0.19
   2   4   1    2.21    0.18
  -4   6   1    1.98    0.20
   2   4   1    2.07    0.21
  -4   6   1    2.12    0.28
  -6   2   1    1.86    0.39
   4  -6   1    2.42    0.19
  -4   6   1    2.38    0.21
  -2  -4   1    2.31    0.18
  -3   6  -1    0.65    0.12
   3  -6  -1    0.06    0.09
  -3   6   1    0.74    0.14
   3  -6   1    0.81    0.14
   3  -6   1    0.90    0.14
  -3   6   1    0.40    0.13
  -2   6  -1    2.40    0.24
  -6   4  -1    2.16    0.32
  -2   6  -1    2.17    0.20
   2  -6  -1    2.08    0.20
  -4  -2  -1    2.45    0.24
   2  -6  -1    2.28    0.20
  -6   4  -1    2.09    0.20
  -2   6  -1    2.13    0.20
   2  -6   1    1.80    0.19
  -2   6   1    2.24    0.20
  -6   4   1    2.38    0.33
   2  -6   1    2.41    0.20
  -6   4   1    2.23    0.21
  -2   6   1    2.27    0.23
   1  -6  -1    1.76    0.18
  -1   6  -1    1.93    0.19
  -5  -1  -1    1.76    0.21
  -1   6  -1    1.82    0.22
   1  -6  -1    1.95    0.19
  -1   6  -1    1.89    0.19
  -6   5  -1    2.18    0.30
  -6   5  -1    2.07    0.21
   1  -6   1    1.87    0.18
   1  -6   1    1.93    0.19
  -1   6   1    1.81    0.21
  -6   5   1    1.99    0.29
  -1   6   1    1.72    0.18
  -6   5   1    1.95    0.20
   0  -6   1    1.30    0.19
   0   6   1    0.47    0.13
   0   6   1    0.64    0.17
  -7   1  -1    1.76    0.25
   6  -7  -1    1.60    0.18
  -1  -6  -1    1.37    0.19
  -6   7  -1    1.72    0.36
   1   6  -1    1.53    0.21
  -1  -6  -1    1.71    0.22
   1   6  -1    1.38    0.24
  -1  -6  -1    1.61    0.21
   1   6   1    1.32    0.22
   1   6   1    1.54    0.21
   6  -7   1    1.55    0.17
  -6   7   1    1.27    0.21
  -1  -6   1    1.81    0.19
  -1  -6   1    1.55    0.21
  -6   7   1    1.70    0.34
  -2  -5  -1   21.89    1.08
   2   5  -1   22.43    1.09
  -2  -5  -1   22.11    1.08
  -2  -5  -1   21.44    1.07
  -5   7  -1   22.12    1.09
   5  -7  -1   21.32    1.09
   2   5  -1   22.34    1.16
   5  -7  -1   22.28    1.08
   5  -7  -1   21.11    1.07
  -5   7  -1   22.12    1.32
  -7   2   1   22.95    1.35
   2   5   1   21.74    1.08
  -2  -5   1   21.67    1.07
   2   5   1   21.07    1.14
  -7   2   1   21.65    1.08
  -5   7   1   22.90    1.32
  -2  -5   1   22.28    1.08
  -5   7   1   22.84    1.14
   5  -7   1   20.75    1.07
   5  -7   1   21.55    1.09
  -5   7   1   21.58    1.08
   4  -7  -1    1.89    0.19
   4  -7  -1    1.85    0.18
   3   4  -1    1.64    0.20
  -4   7  -1    1.89    0.22
   4  -7  -1    1.74    0.19
   3   4  -1    1.94    0.27
  -7   3  -1    1.81    0.19
  -4   7  -1    1.88    0.35
  -4   7  -1    2.14    0.21
  -4   7   1    1.88    0.19
   4  -7   1    1.77    0.19
   3   4   1    1.88    0.21
  -7   3   1    1.75    0.19
   4  -7   1    1.77    0.23
  -4   7   1    1.79    0.21
  -7   3   1    1.03    0.32
  -4   7   1    1.80    0.29
   3  -7  -1    1.71    0.22
  -7   4  -1    1.73    0.20
   3  -7  -1    1.81    0.20
   3  -7  -1    1.96    0.20
  -3   7  -1    1.75    0.22
  -3   7  -1    1.87    0.20
   3  -7   1    1.66    0.21
   3  -7   1    1.89    0.20
  -3   7   1    1.49    0.30
  -3   7   1    1.78    0.19
  -7   4   1    1.65    0.19
  -7   4   1    1.17    0.38
  -3   7   1    1.76    0.22
  -2   7  -1   21.79    1.16
  -2   7  -1   20.89    1.10
  -7   5  -1   22.47    1.43
   2  -7  -1   20.56    1.09
  -7   5  -1   21.39    1.11
   2  -7  -1   22.22    1.10
  -5  -2  -1   21.71    1.17
   2  -7   1   20.13    1.09
  -2   7   1   21.16    1.15
  -2   7   1   21.30    1.10
  -7   5   1   21.99    1.13
   2  -7   1   21.98    1.11
  -7   5   1   24.69    1.48
  -7   6  -1    1.99    0.41
  -1   7  -1    1.51    0.23
  -1   7  -1    1.54    0.26
  -7   6  -1    1.31    0.21
  -6  -1  -1    1.62    0.26
   1  -7  -1    1.71    0.23
   1  -7  -1    1.74    0.23
   1  -7  -1    1.34    0.20
  -7   6   1    1.51    0.23
  -7   6   1    1.69    0.37
   1  -7   1    1.35    0.20
  -1   7   1    1.52    0.21
  -1   7   1    1.41    0.24
   1  -7   1    1.77    0.24
   0   7  -1    1.20    0.20
   0  -7  -1    1.55    0.22
   0   7  -1    1.36    0.26
   0  -7  -1    1.08    0.19
  -7   7  -1    1.47    0.34
  -7   7  -1    1.24    0.22
  -7   0  -1    1.65    0.26
   0  -7  -1    1.22    0.20
   0   7   1    1.56    0.25
   0   7   1    1.25    0.20
  -7   7   1    1.08    0.20
   0  -7   1    1.30    0.20
  -7   7   1    1.33    0.33
   0  -7   1    1.66    0.24
   3   5  -1    1.09    0.21
  -5   8  -1    1.21    0.20
   5  -8  -1    1.08    0.19
  -5   8  -1    0.82    0.25
   5  -8  -1    1.20    0.18
   5  -8  -1    1.41    0.20
  -5   8   1    1.12    0.19
   5  -8   1    1.27    0.20
   5  -8   1    1.27    0.20
   5  -8   1    1.24    0.19
  -5   8   1    1.04    0.29
   3   5   1    1.36    0.23
  -8   3   1    1.05    0.19
  -4   8  -1   17.48    1.16
   4  -8  -1   17.88    0.93
  -4   8  -1   18.14    0.95
  -4   8  -1   17.27    0.99
  -8   4  -1   16.85    0.93
   4  -8  -1   17.17    0.93
   4  -8  -1   16.56    0.93
  -4   8   1   16.70    0.92
  -4   8   1   16.95    1.14
  -8   4   1   17.40    0.93
   4  -8   1   17.47    0.93
  -4   8   1   16.77    0.97
   4  -8   1   17.26    0.92
   3  -8  -1    1.08    0.19
   3  -8  -1    1.05    0.18
  -3   8  -1    1.31    0.22
  -8   5  -1    1.38    0.22
  -3   8  -1    1.26    0.24
   3  -8  -1    0.69    0.16
  -3   8   1    1.21    0.20
   3  -8   1    1.19    0.21
  -3   8   1    1.09    0.29
  -8   5   1    1.14    0.41
  -3   8   1    1.39    0.25
  -8   5   1    1.32    0.21
   3  -8   1    1.01    0.18
   0  -1  -2    3.82    0.19
  -1   0  -2    3.55    0.20
  -1   0   2    3.46    0.17
   1  -1   2    3.27    0.17
  -1   1   2    3.66    0.18
   1   0   2    3.70    0.17
   1  -1   2    3.23    0.17
  -1   0   2    3.22    0.17
  -1   1   2    3.58    0.17
   0  -1   2    3.73    0.19
   0   1   2    3.42    0.18
   0  -1   2    3.37    0.17
   1   0   2    3.45    0.18
   1  -2  -2  325.51   13.84
  -2   1  -2  308.69   13.94
   1  -2  -2  335.93   13.89
  -1  -1  -2  327.31   13.94
   1  -2   2  323.22   13.42
  -1  -1   2  313.00   13.42
   1   1   2  317.92   13.45
  -2   1   2  287.84   13.39
  -1   2   2  305.63   13.41
  -1   2   2  312.91   13.43
   1  -2   2  313.93   13.41
   1  -2   2  315.18   13.41
   1   1   2  327.49   13.40
  -1   2   2  316.24   13.45
   0  -2  -2    2.82    0.16
   0  -2  -2    2.88    0.17
  -2   0  -2    2.55    0.17
  -2   2  -2    2.07    0.20
  -2   2  -2    2.74    0.18
   2  -2  -2    2.67    0.15
   2  -2  -2    2.72    0.15
   0  -2  -2    2.51    0.15
   0   2   2    2.50    0.16
   0   2   2    2.53    0.16
   2  -2   2    2.39    0.14
   0   2   2    2.62    0.15
  -2   2   2    2.42    0.16
   0  -2   2    2.38    0.15
   2  -2   2    2.37    0.14
   2   0   2    2.64    0.14
  -2   2   2    2.46    0.14
  -2   2   2    2.70    0.15
  -2   2   2    2.88    0.21
   2  -2   2    2.49    0.14
  -2   2   2    2.73    0.20
   0  -2   2    2.59    0.15
  -2   0   2    2.47    0.13
   2   0   2    2.55    0.13
  -3   1  -2    2.08    0.15
   2  -3  -2    2.07    0.14
   2  -3  -2    2.10    0.14
  -1  -2  -2    2.06    0.13
  -1  -2  -2    2.21    0.17
  -1  -2  -2    1.86    0.13
  -3   1   2    1.90    0.10
   3  -1   2    1.83    0.10
  -3   1   2    1.95    0.12
  -2   3   2    1.97    0.14
   1   2   2    2.02    0.13
   1   2   2    2.15    0.15
   2  -3   2    1.94    0.13
  -1  -2   2    1.87    0.13
  -1  -2   2    1.97    0.13
  -3   1   2    1.32    0.21
  -2   3   2    1.94    0.13
  -3   1   2    1.93    0.14
   2  -3   2    2.06    0.13
   1   2   2    1.89    0.13
  -2   3   2    2.03    0.14
  -3   1   2    1.90    0.10
  -1  -2   2    2.19    0.13
  -2   3   2    1.98    0.19
   2  -3   2    1.83    0.13
   3  -2  -2    2.11    0.12
  -2  -1  -2    2.14    0.12
  -3   2  -2    2.13    0.16
  -1   3  -2    2.13    0.14
  -2  -1  -2    1.79    0.15
   1  -3  -2    1.86    0.14
  -3   2  -2    1.85    0.14
   1  -3  -2    2.13    0.14
   1  -3   2    2.10    0.14
  -2  -1   2    1.87    0.12
   3  -2   2    1.85    0.13
  -2  -1   2    2.13    0.14
   1  -3   2    1.93    0.14
  -2  -1   2    2.02    0.13
   2   1   2    2.10    0.12
  -3   2   2    1.96    0.12
  -1   3   2    2.04    0.14
  -3   2   2    2.07    0.20
  -1   3   2    2.00    0.16
   3  -2   2    2.17    0.14
  -3   2   2    2.14    0.12
   3  -2   2    1.89    0.11
  -3   2   2    1.91    0.14
   1  -3   2    1.92    0.14
  -2  -1   2    1.99    0.19
  -2  -1   2    1.85    0.12
   2   1   2    2.12    0.14
  -3   0  -2  187.18    8.19
   0  -3  -2  191.47    8.16
   3  -3  -2  188.61    8.14
   3  -3  -2  189.85    8.14
  -3   3  -2  184.77    8.17
   0   3  -2  194.84    8.16
  -3   3  -2  190.91    8.24
   0  -3  -2  197.85    8.16
  -3   0   2  177.35    7.75
  -3   0   2  177.84    7.74
   3  -3   2  177.36    7.72
  -3   3   2  188.48    7.73
   3   0   2  184.18    7.73
   0  -3   2  183.59    7.74
   0   3   2  191.18    7.75
   3  -3   2  173.16    7.72
   0  -3   2  183.50    7.74
   3   0   2  176.42    7.70
   0  -3   2  182.64    7.74
  -3   0   2  160.91    7.89
   3  -3   2  181.10    7.72
   0   3   2  191.51    7.78
  -3   3   2  177.94    7.72
  -3   3   2  188.66    7.75
  -3   0   2  177.69    7.69
  -3   4  -2    1.42    0.13
  -1  -3  -2    1.36    0.12
  -3   4  -2    1.34    0.13
  -4   1  -2    1.44    0.11
   3  -4  -2    1.35    0.12
  -1  -3  -2    1.48    0.15
  -1  -3  -2    1.46    0.12
  -3   4  -2    1.43    0.12
  -4   1  -2    1.44    0.16
   1   3  -2    1.32    0.14
   3  -4  -2    1.31    0.12
  -4   1  -2    1.34    0.14
   1   3  -2    1.26    0.12
  -3   4   2    1.22    0.12
  -1  -3   2    1.35    0.12
  -3   4   2    1.40    0.13
   3  -4   2    1.33    0.11
  -4   1   2    1.02    0.25
   1   3   2    1.28    0.13
  -3   4   2    1.25    0.17
  -4   1   2    1.43    0.12
   3  -4   2    1.13    0.11
  -1  -3   2    1.37    0.12
  -1  -3   2    1.28    0.11
  -3   4   2    1.30    0.11
  -4   1   2    1.41    0.12
   1   3   2    1.44    0.12
  -4   2  -2  188.69    8.70
   2  -4  -2  211.86    8.72
  -2  -2  -2  208.37    8.69
   2   2  -2  199.91    8.69
   2   2  -2  202.22    8.72
  -2  -2  -2  206.86    8.76
  -4   2  -2  195.87    8.72
  -2   4  -2  207.30    8.71
  -2   4  -2  203.04    8.74
   2  -4  -2  206.32    8.71
  -2  -2  -2  206.69    8.68
  -2  -2   2  201.83    8.31
  -2  -2   2  186.59    8.35
   2  -4   2  194.89    8.34
  -2  -2   2  202.06    8.32
  -2  -2   2  190.23    8.32
  -4   2   2  193.93    8.31
  -2  -2   2  193.12    8.31
   4  -2   2  183.27    8.32
   2  -4   2  195.55    8.34
  -4   2   2  194.24    8.35
  -2   4   2  203.85    8.34
  -2   4   2  198.07    8.37
   2   2   2  199.89    8.32
  -2   4   2  199.32    8.47
  -2   4   2  197.15    8.34
  -4   2   2  183.36    8.55
   2  -4   2  192.61    8.34
   2   2   2  194.31    8.35
  -4   3  -2    1.44    0.10
  -4   3  -2    1.22    0.12
  -1   4  -2    1.35    0.15
  -4   3  -2    1.22    0.09
  -3  -1  -2    1.52    0.15
   1  -4  -2    1.25    0.12
   1  -4  -2    1.51    0.13
  -3  -1  -2    1.42    0.10
  -4   3  -2    1.48    0.17
   4  -3  -2    1.36    0.10
  -4   3  -2    1.63    0.14
   3   1  -2    1.45    0.12
   4  -3  -2    1.35    0.10
  -1   4  -2    1.34    0.13
  -4   3   2    1.39    0.10
  -4   3   2    1.40    0.13
  -3  -1   2    1.45    0.10
   3   1   2    1.33    0.09
  -3  -1   2    1.41    0.10
  -1   4   2    1.33    0.13
  -1   4   2    1.44    0.15
  -3  -1   2    1.26    0.11
   3   1   2    1.33    0.11
  -3  -1   2    1.35    0.09
   4  -3   2    1.36    0.10
   4  -3   2    1.25    0.12
  -4   3   2    1.39    0.18
   4  -3   2    1.30    0.09
   1  -4   2    1.28    0.12
  -4   3   2    1.42    0.10
   1  -4   2    1.21    0.12
  -3  -1   2    1.46    0.18
   4  -4  -2    1.14    0.11
   0   4  -2    1.21    0.14
  -4   4  -2    1.27    0.11
  -4   4  -2    1.22    0.11
  -4   4  -2    1.16    0.17
  -4   4  -2    1.31    0.13
   0  -4  -2    1.16    0.12
  -4   4  -2    1.20    0.15
   4  -4  -2    1.21    0.10
   0   4  -2    1.21    0.13
  -4   0  -2    1.14    0.14
   4  -4  -2    1.03    0.10
  -4   0  -2    1.08    0.13
   0   4  -2    1.36    0.13
  -4   4  -2    1.18    0.11
   0  -4  -2    1.15    0.12
   0   4   2    1.19    0.14
   4  -4   2    0.97    0.10
  -4   4   2    1.12    0.17
  -4   4   2    1.19    0.10
   0  -4   2    1.18    0.12
  -4   4   2    1.18    0.13
  -4   0   2    1.06    0.11
   0  -4   2    1.19    0.12
   4  -4   2    1.12    0.10
   0   4   2    1.18    0.12
  -4   0   2    1.19    0.12
  -4   0   2    0.92    0.20
  -4   4   2    1.17    0.11
  -4   5  -2  147.20    6.31
  -1  -4  -2  144.57    6.29
   4  -5  -2  146.95    6.28
  -4   5  -2  147.83    6.29
   1   4  -2  144.75    6.29
  -4   5  -2  146.18    6.28
   1   4  -2  145.56    6.35
  -4   5  -2  142.40    6.46
   4  -5  -2  144.52    6.29
  -1  -4  -2  146.43    6.29
  -5   1  -2  146.27    6.34
   1   4  -2  144.73    6.30
  -4   5  -2  146.21    6.33
   4  -5  -2  146.67    6.28
  -1  -4  -2  148.32    6.29
  -5   1  -2  143.70    6.27
  -1  -4   2  138.39    5.97
  -4   5   2  137.57    5.98
   1   4   2  139.42    6.03
   4  -5   2  136.74    5.97
  -5   1   2  140.59    5.98
  -5   1   2  136.62    5.98
  -1  -4   2  141.75    5.98
  -4   5   2  135.22    6.14
   1   4   2  138.77    5.98
  -4   5   2  140.97    6.01
  -4   5   2  136.62    5.96
   4  -5   2  137.36    5.96
   3  -5  -2    1.01    0.13
   2   3  -2    1.12    0.11
  -2  -3  -2    1.10    0.11
  -3   5  -2    1.11    0.14
   3  -5  -2    1.17    0.12
  -2  -3  -2    1.26    0.11
  -5   2  -2    0.60    0.18
  -2  -3  -2    1.23    0.11
   2   3  -2    1.02    0.13
   3  -5  -2    1.09    0.12
  -2  -3  -2    0.98    0.16
  -5   2  -2    1.08    0.11
  -3   5  -2    1.11    0.12
  -3   5  -2    1.06    0.14
   2   3  -2    1.10    0.11
  -5   2  -2    1.09    0.13
  -2  -3   2    1.12    0.12
  -3   5   2    0.98    0.20
  -2  -3   2    1.03    0.10
  -3   5   2    1.06    0.12
  -3   5   2    1.05    0.13
  -2  -3   2    1.00    0.10
  -3   5   2    1.15    0.12
  -5   2   2    0.61    0.21
   2   3   2    1.09    0.11
   3  -5   2    1.09    0.11
   2   3   2    1.08    0.13
  -5   2   2    0.99    0.12
   3  -5   2    0.97    0.13
   3   2  -2    1.14    0.13
   3   2  -2    1.11    0.10
  -3  -2  -2    1.12    0.10
   2  -5  -2    1.06    0.14
  -5   3  -2    1.14    0.12
  -2   5  -2    1.06    0.17
  -5   3  -2    1.30    0.26
  -2   5  -2    1.03    0.13
   2  -5  -2    0.78    0.12
  -2   5  -2    1.26    0.13
   3   2  -2    1.10    0.10
  -3  -2  -2    1.08    0.17
  -5   3  -2    0.93    0.11
  -3  -2   2    1.01    0.11
   5  -3   2    1.16    0.11
   2  -5   2    0.89    0.12
   3   2   2    1.07    0.10
   3   2   2    0.99    0.11
   2  -5   2    0.87    0.13
  -2   5   2    1.13    0.13
  -5   3   2    1.16    0.13
  -5   3   2    1.15    0.25
  -3  -2   2    1.11    0.10
  -2   5   2    1.01    0.15
  -5   4  -2  134.51    6.31
  -1   5  -2  145.94    6.32
  -5   4  -2  149.62    6.49
   1  -5  -2  149.74    6.32
  -1   5  -2  148.20    6.33
  -1   5  -2  145.12    6.37
   5  -4  -2  150.20    6.27
  -5   4  -2  147.18    6.32
   1  -5  -2  147.18    6.32
  -4  -1  -2  142.80    6.37
  -4  -1   2  133.44    6.00
  -1   5   2  140.43    6.08
   5  -4   2  142.20    6.04
   1  -5   2  135.59    6.03
   1  -5   2  143.70    6.04
  -5   4   2  138.07    6.22
  -4  -1   2  132.91    6.17
   4   1   2  141.13    6.07
   5  -4   2  141.47    5.98
  -1   5   2  141.74    6.04
  -5   4   2  143.24    6.06
   0  -5  -2    0.86    0.13
   5  -5  -2    1.05    0.13
   0   5  -2    0.85    0.16
  -5   0  -2    0.92    0.16
   0   5  -2    0.85    0.13
  -5   5  -2    1.04    0.22
  -5   5  -2    0.76    0.13
   0  -5  -2    0.73    0.12
   5  -5  -2    0.80    0.11
  -5   5  -2    1.07    0.11
   5  -5  -2    0.86    0.11
   0   5  -2    0.91    0.14
  -5   0   2    0.96    0.22
   0   5   2    0.72    0.12
   0  -5   2    0.86    0.13
   5  -5   2    0.75    0.11
   0   5   2    0.78    0.15
  -5   5   2    0.85    0.14
   5  -5   2    0.86    0.11
   0  -5   2    0.79    0.13
  -5   5   2    0.77    0.19
  -5   0   2    0.70    0.11
  -5   5   2    0.95    0.12
  -1  -5  -2    0.62    0.11
   5  -6  -2    0.75    0.12
  -1  -5  -2    0.77    0.14
   5  -6  -2    0.71    0.12
  -5   6  -2    0.83    0.22
   1   5  -2    0.78    0.14
   5  -6  -2    0.77    0.12
   1   5  -2    0.71    0.12
  -5   6  -2    0.69    0.11
   1   5  -2    0.62    0.14
  -1  -5  -2    0.80    0.13
  -6   1  -2    0.90    0.17
  -5   6   2    0.68    0.11
   1   5   2    0.68    0.12
   1   5   2    0.54    0.13
  -5   6   2    0.77    0.20
   5  -6   2    0.56    0.10
  -1  -5   2    0.64    0.12
  -1  -5   2    0.66    0.12
  -6   1   2    0.53    0.11
   5  -6   2    0.75    0.12
  -5   6   2    0.57    0.12
  -6   1   2    0.67    0.21
   4  -6  -2    0.73    0.12
  -6   2  -2    0.76    0.12
  -4   6  -2    0.90    0.22
  -2  -4  -2    0.88    0.12
  -4   6  -2    0.83    0.13
  -2  -4  -2    0.71    0.11
   2   4  -2    0.65    0.12
   2   4  -2    0.67    0.14
  -2  -4  -2    0.82    0.13
   2   4  -2    0.94    0.13
  -4   6  -2    0.72    0.13
   4  -6  -2    0.91    0.13
  -4   6  -2    0.57    0.12
  -6   2  -2    0.73    0.14
   4  -6  -2    0.79    0.13
   4  -6   2    0.63    0.11
  -4   6   2    0.68    0.13
  -2  -4   2    0.64    0.11
   2   4   2    0.61    0.13
  -4   6   2    0.65    0.18
  -4   6   2    0.78    0.13
  -2  -4   2    0.77    0.12
  -6   2   2    0.54    0.11
  -6   2   2    0.64    0.24
   2   4   2    0.79    0.12
  -4   6   2    0.79    0.14
   4  -6   2    0.70    0.12
   3  -6  -2  100.33    4.42
   3   3  -2  103.10    4.39
   3   3  -2  104.44    4.39
   3   3  -2  103.54    4.45
   3  -6  -2  101.68    4.41
  -3   6  -2   97.88    4.43
  -3   6  -2  103.73    4.48
   3  -6  -2   99.03    4.41
  -6   3  -2   96.20    4.41
  -6   3  -2  100.36    4.42
  -3   6  -2   99.61    4.42
  -3  -3  -2  100.79    4.50
  -6   3   2   97.74    4.27
   3   3   2   99.31    4.22
   3  -6   2   99.06    4.26
  -3   6   2   96.05    4.30
  -3   6   2   95.31    4.26
  -3   6   2   98.72    4.46
   3   3   2   95.33    4.27
   3  -6   2   95.52    4.25
  -2   6  -2    0.67    0.13
  -6   4  -2    0.91    0.25
   2  -6  -2    0.91    0.15
  -6   4  -2    0.55    0.11
  -4  -2  -2    0.75    0.16
  -2   6  -2    0.62    0.12
  -2   6  -2    0.69    0.15
   2  -6  -2    0.65    0.12
   2  -6  -2    0.70    0.12
   2  -6   2    0.84    0.14
  -2   6   2    0.71    0.13
  -6   4   2    0.69    0.22
   2  -6   2    0.68    0.12
  -6   4   2    0.64    0.13
  -2   6   2    0.85    0.16
   1  -6  -2    0.62    0.13
  -5  -1  -2    0.52    0.14
  -1   6  -2    0.64    0.13
  -6   5  -2    0.66    0.13
  -6   5  -2    0.75    0.21
  -1   6  -2    0.64    0.15
   1  -6  -2    0.62    0.13
  -1   6  -2    0.65    0.13
   1  -6  -2    0.75    0.14
  -1   6   2    0.45    0.10
  -5  -1   2    0.63    0.17
   1  -6   2    0.65    0.13
  -6   5   2    0.92    0.16
  -1   6   2    0.58    0.14
  -6   5   2    0.76    0.22
   1  -6   2    0.56    0.12
   6  -5   2    0.75    0.14
  -6   0  -2   81.39    3.63
   0  -6  -2   78.92    3.56
   0  -6  -2   79.18    3.55
   0  -6  -2   78.67    3.56
   0   6  -2   80.30    3.65
   0   6  -2   80.38    3.58
   6  -6  -2   80.04    3.53
  -6   6  -2   80.93    3.80
   0   6  -2   79.91    3.56
   0   6   2   77.94    3.46
   0  -6   2   76.13    3.46
   0  -6   2   79.13    3.46
  -6   6   2   80.52    3.51
   0   6   2   73.98    3.51
  -6   6   2   78.32    3.70
  -6   0   2   77.17    3.66
   1   6  -2    0.49    0.15
   1   6  -2    0.34    0.10
   6  -7  -2    0.40    0.11
   6  -7  -2    0.57    0.13
  -7   1  -2    0.73    0.16
   1   6  -2    0.54    0.13
  -1  -6  -2    0.67    0.14
  -1  -6  -2    0.42    0.11
  -1  -6  -2    0.46    0.12
  -6   7  -2    0.62    0.21
  -6   7   2    0.53    0.14
  -7   1   2    0.51    0.19
  -1  -6   2    0.41    0.11
   1   6   2    0.41    0.11
   1   6   2    0.51    0.13
   6  -7   2    0.49    0.12
  -6   7   2    0.34    0.17
  -1  -6   2    0.69    0.14
  -5   7  -2   91.13    3.99
   2   5  -2   89.88    3.97
   5  -7  -2   91.73    3.97
  -2  -5  -2   87.79    3.96
  -2  -5  -2   92.11    3.98
  -2  -5  -2   89.56    3.98
   2   5  -2   89.90    4.06
   5  -7  -2   89.35    3.99
  -5   7  -2   88.85    4.26
   2   5  -2   90.47    3.99
   5  -7  -2   90.38    3.98
  -5   7   2   84.50    3.79
  -2  -5   2   88.07    3.78
  -5   7   2   85.59    4.06
  -7   2   2   76.56    4.11
   2   5   2   85.34    3.79
   5  -7   2   90.13    3.80
   2   5   2   85.78    3.86
   5  -7   2   86.07    3.80
  -7   2   2   85.10    3.81
  -2  -5   2   87.71    3.79
  -5   7   2   87.75    3.85
   4  -7  -2    0.65    0.12
  -4   7  -2    0.56    0.13
   3   4  -2    0.41    0.13
  -4   7  -2    0.67    0.21
   3   4  -2    0.71    0.15
  -4   7  -2    0.55    0.12
   4  -7  -2    0.39    0.10
  -7   3  -2    0.54    0.12
   4  -7  -2    0.53    0.12
  -4   7  -2    0.76    0.16
  -4   7   2    0.48    0.17
  -7   3   2    0.41    0.22
   4  -7   2    0.42    0.11
  -4   7   2    0.55    0.12
  -4   7   2    0.36    0.11
   3   4   2    0.57    0.13
  -7   3   2    0.53    0.12
   4  -7   2    0.69    0.13
   3  -7  -2    0.43    0.12
  -7   4  -2    0.57    0.12
  -3   7  -2    0.50    0.12
   3  -7  -2    0.45    0.11
  -3   7  -2    0.49    0.12
  -3   7  -2    0.62    0.15
   3  -7  -2    0.41    0.12
  -7   4   2    0.48    0.12
   3  -7   2    0.55    0.12
  -3   7   2    0.49    0.12
  -3   7   2    0.63    0.20
  -7   4   2    0.35    0.21
   3  -7   2    0.50    0.12
   2  -7  -2   87.98    3.99
  -2   7  -2   90.81    4.09
  -7   5  -2   87.25    4.01
  -2   7  -2   90.03    4.00
  -5  -2  -2   91.83    4.10
   2  -7  -2   90.04    4.01
   2  -7  -2   89.03    4.00
  -2   7  -2   92.51    4.02
  -7   5   2   88.78    3.97
  -7   5   2   92.61    4.36
   2  -7   2   89.43    3.94
   2  -7   2   87.14    3.94
  -2   7   2   84.68    3.99
  -2   7   2   88.08    3.93
  -7   6  -2    0.42    0.19
   1  -7  -2    0.49    0.13
  -6  -1  -2    0.56    0.16
   1  -7  -2    0.36    0.11
  -1   7  -2    0.58    0.17
  -1   7  -2    0.27    0.11
   1  -7  -2    0.57    0.14
  -7   6  -2    0.50    0.13
  -1   7  -2    0.49    0.12
  -7   6   2    0.51    0.22
   1  -7   2    0.51    0.12
  -7   6   2    0.47    0.13
   1  -7   2    0.43    0.13
  -1   7   2    0.34    0.12
  -1   7   2    0.64    0.14
   0  -7  -2    0.43    0.12
  -7   7  -2    0.43    0.19
  -7   0  -2    0.47    0.15
   0  -7  -2    0.32    0.11
   0   7  -2    0.50    0.14
   0  -7  -2    0.61    0.15
   0   7  -2    0.37    0.15
   0   7   2    0.42    0.14
   0   7   2    0.65    0.14
  -7   7   2    0.41    0.13
   7  -7   2    0.60    0.15
  -7   7   2    0.42    0.20
   0  -7   2    0.34    0.11
   0  -7   2    0.32    0.11
   3   5  -2    0.34    0.13
   5  -8  -2    0.38    0.12
  -5   8  -2    0.47    0.13
   5  -8  -2    0.47    0.13
  -5   8  -2    0.51    0.22
   5  -8  -2    0.45    0.12
  -5   8   2    0.66    0.24
   5  -8   2    0.48    0.12
   5  -8   2    0.39    0.12
  -5   8   2    0.53    0.13
   3   5   2    0.59    0.15
  -8   3   2    0.45    0.13
   4  -8  -2   72.75    3.31
  -4   8  -2   76.20    3.42
  -4   8  -2   78.21    3.36
  -8   4  -2   72.86    3.32
  -4   8  -2   68.28    3.58
   4  -8  -2   73.16    3.32
   4  -8  -2   73.33    3.33
  -8   4   2   71.54    3.18
   4  -8   2   76.08    3.19
  -4   8   2   70.45    3.16
  -4   8   2   68.18    3.43
  -4   8   2   68.41    3.21
  -8   4   2   57.34    3.61
   4  -8   2   74.58    3.18
   3  -8  -2    0.52    0.14
  -3   8  -2    0.46    0.13
  -3   8  -2    0.47    0.15
   3  -8  -2    0.60    0.14
   3  -8  -2    0.25    0.10
  -8   5  -2    0.67    0.16
   3  -8   2    0.43    0.13
  -8   5   2    0.32    0.12
  -3   8   2    0.44    0.19
   3  -8   2    0.42    0.12
  -3   8   2    0.42    0.12
  -8   5   2    0.44    0.27
  -3   8   2    0.44    0.14
   0   0   3    0.75    0.10
  -1   1  -3   13.30    0.77
   0  -1  -3   16.03    0.72
  -1   0  -3   16.57    0.73
   0  -1  -3   17.50    0.72
  -1   0   3   15.07    0.67
  -1   1   3   15.25    0.67
   0   1   3   15.79    0.68
  -1   1   3   14.93    0.66
  -1   0   3   14.36    0.67
   1   0   3   14.30    0.67
   0  -1   3   13.85    0.67
   1  -1   3   14.08    0.66
   0   1   3   15.91    0.67
   1   0   3   15.67    0.68
   1  -1   3   14.47    0.67
   0  -1   3   13.71    0.66
  -1  -1  -3  119.34    5.18
  -1  -1  -3  126.09    5.16
   1  -2  -3  118.62    5.15
   1  -2  -3  118.95    5.16
   1  -2  -3  118.07    5.16
  -1  -1  -3  122.24    5.16
  -2   1  -3  119.76    5.20
  -1  -1   3  110.96    4.70
  -1  -1   3  110.60    4.72
   2  -1   3  108.69    4.73
   1  -2   3  109.45    4.71
  -1  -1   3  106.35    4.70
   1  -2   3  110.13    4.71
   2  -1   3  113.01    4.74
  -2   1   3  114.03    4.74
  -2   1   3  113.56    4.84
   1   1   3  116.65    4.70
  -1  -1   3  111.55    4.80
  -2   1   3  103.06    4.71
  -1   2   3  110.29    4.72
   1  -2   3  110.47    4.72
   1   1   3  107.67    4.71
   2  -1   3  104.79    4.71
   1  -2   3  110.31    4.73
   1   1   3  117.59    4.72
  -2   1   3   96.06    4.73
  -2   2  -3   11.57    0.66
   0  -2  -3   12.24    0.58
  -2   0  -3   11.82    0.60
   0  -2  -3   12.08    0.58
   0  -2  -3   12.60    0.59
   2  -2  -3   13.05    0.57
   2  -2  -3   13.26    0.58
   0  -2   3   11.77    0.55
   0   2   3   11.95    0.55
  -2   2   3   11.89    0.56
  -2   2   3   11.97    0.62
  -2   2   3   12.08    0.54
   2  -2   3   11.93    0.54
   2  -2   3   11.84    0.55
   0  -2   3   11.99    0.55
   2  -2   3   11.85    0.57
  -2   0   3   11.57    0.56
   2   0   3   11.72    0.54
  -2   0   3   10.94    0.54
   0   2   3   11.66    0.57
  -2   2   3   12.28    0.56
  -2   2   3   12.23    0.55
  -2   0   3   10.49    0.53
   0  -2   3   11.96    0.55
   2  -2   3   11.58    0.54
   0  -2   3   11.67    0.56
   0   2   3   12.41    0.57
   2   0   3   11.56    0.55
   2  -2   3   11.56    0.54
   2  -3  -3    9.72    0.47
  -1  -2  -3    9.30    0.46
   2  -3  -3    9.89    0.47
  -1  -2  -3    9.76    0.50
   2  -3  -3    9.85    0.47
  -1  -2  -3    9.68    0.46
  -3   1  -3    9.16    0.49
   1   2   3    8.98    0.46
  -1  -2   3    9.55    0.44
  -2   3   3    8.76    0.44
  -2   3   3    9.10    0.52
  -2   3   3    9.54    0.45
   3  -1   3    8.91    0.46
  -2   3   3    8.68    0.45
  -2   3   3    9.23    0.47
  -1  -2   3    9.05    0.45
   2  -3   3    9.10    0.44
   2  -3   3    9.32    0.45
   2  -3   3    9.00    0.44
   1   2   3    9.16    0.45
   3  -1   3    9.31    0.43
  -3   1   3    8.80    0.45
   1   2   3    9.04    0.44
  -1  -2   3    9.35    0.44
   3  -1   3    8.83    0.40
  -3   1   3    8.19    0.41
  -3   1   3    8.85    0.42
  -1  -2   3    9.11    0.44
  -2  -1  -3    9.39    0.51
  -1   3  -3   10.26    0.49
   1  -3  -3    9.92    0.48
  -3   2  -3   10.70    0.54
  -3   2  -3    9.28    0.48
  -2  -1  -3   10.01    0.46
  -2  -1  -3   10.12    0.47
   3  -2  -3    9.78    0.46
   1  -3  -3    9.47    0.48
   3  -2  -3    9.68    0.46
  -3   2   3    9.51    0.56
   2   1   3    9.38    0.46
   3  -2   3    9.30    0.43
  -3   2   3    9.33    0.47
  -2  -1   3    9.61    0.44
  -2  -1   3    9.16    0.44
   3  -2   3    9.04    0.43
   1  -3   3    9.24    0.46
  -1   3   3    8.96    0.48
  -1   3   3    9.01    0.46
  -2  -1   3    9.31    0.48
   1  -3   3    9.55    0.46
   2   1   3    9.55    0.44
  -3   2   3    9.59    0.45
  -3   2   3    9.24    0.45
  -3   2   3    8.97    0.43
   3  -2   3    9.07    0.43
   3  -2   3    9.03    0.43
   1  -3   3    8.84    0.46
  -1   3   3    8.94    0.48
  -2  -1   3    8.96    0.43
  -2  -1   3    9.66    0.57
   2   1   3    9.36    0.45
   3  -2   3    9.43    0.46
  -3   3  -3    0.00    0.06
   0  -3  -3   -0.09    0.03
  -3   3  -3   -0.07    0.04
   3  -3  -3    0.17    0.06
   0   3  -3   -0.04    0.04
   0  -3  -3   -0.13    0.03
  -3   0  -3   -0.05    0.05
  -3   3  -3    0.17    0.10
   0  -3  -3   -0.10    0.04
   0   3   3   -0.12    0.03
   3  -3   3   -0.10    0.02
  -3   0   3   -0.07    0.02
   3   0   3   -0.09    0.03
   0   3   3   -0.06    0.04
  -3   0   3   -0.07    0.03
   3  -3   3   -0.12    0.02
  -3   3   3    0.00    0.05
   0  -3   3   -0.08    0.03
  -3   3   3   -0.11    0.03
  -3   3   3   -0.08    0.03
  -3   0   3    0.23    0.13
   0  -3   3   -0.11    0.03
   3  -3   3   -0.09    0.03
   3  -3   3   -0.07    0.04
   0  -3   3   -0.08    0.03
   0   3   3   -0.03    0.05
  -1  -3  -3    6.42    0.35
  -3   4  -3    6.67    0.36
  -1  -3  -3    6.36    0.35
  -4   1  -3    6.30    0.38
   3  -4  -3    6.43    0.35
  -4   1  -3    6.42    0.34
  -1  -3  -3    6.38    0.35
  -1  -3  -3    6.74    0.40
   1   3  -3    6.76    0.36
   3  -4  -3    6.51    0.35
   3  -4  -3    6.60    0.36
   3  -4   3    6.22    0.34
   3  -4   3    6.52    0.34
   1   3   3    6.23    0.34
  -3   4   3    6.23    0.44
  -1  -3   3    6.04    0.34
  -3   4   3    5.78    0.35
   1   3   3    6.54    0.37
  -4   1   3    6.68    0.56
  -4   1   3    6.32    0.35
  -1  -3   3    6.38    0.34
  -1  -3   3    6.26    0.35
  -3   4   3    5.90    0.33
   1   3   3    6.26    0.35
  -3   4   3    6.42    0.36
   3  -4   3    6.24    0.34
  -4   1   3    5.99    0.31
  -2   4  -3   64.64    2.79
   4  -2  -3   61.02    2.75
  -2  -2  -3   64.82    2.76
  -2  -2  -3   62.84    2.83
   2  -4  -3   65.86    2.79
  -4   2  -3   60.32    2.81
  -2  -2  -3   64.71    2.77
   2  -4  -3   65.57    2.79
   2   2  -3   63.73    2.77
   2  -4  -3   65.52    2.80
  -4   2  -3   61.10    2.78
  -2   4   3   62.17    2.59
   2  -4   3   59.93    2.60
   2  -4   3   60.37    2.59
  -2  -2   3   53.42    2.62
   2   2   3   60.08    2.57
   2  -4   3   59.16    2.59
   4  -2   3   60.84    2.53
  -4   2   3   51.18    2.56
   4  -2   3   57.33    2.58
  -2  -2   3   61.94    2.57
  -2  -2   3   60.24    2.57
  -2  -2   3   59.72    2.57
  -2   4   3   59.19    2.62
  -2  -2   3   60.57    2.57
  -4   2   3   57.50    2.81
  -2   4   3   61.18    2.59
   2   2   3   57.99    2.58
   2   2   3   59.25    2.60
  -2   4   3   59.12    2.71
  -4   3  -3    5.96    0.37
   4  -3  -3    6.66    0.34
  -3  -1  -3    6.09    0.40
   4  -3  -3    6.92    0.33
  -4   3  -3    7.13    0.42
  -1   4  -3    6.71    0.37
  -4   3  -3    6.92    0.45
   1  -4  -3    6.80    0.38
   1  -4  -3    6.90    0.38
  -4   3   3    6.19    0.32
  -4   3   3    5.81    0.44
  -4   3   3    5.97    0.36
  -1   4   3    6.63    0.36
  -3  -1   3    6.38    0.31
  -1   4   3    6.37    0.38
   3   1   3    6.45    0.34
   3   1   3    6.49    0.31
   1  -4   3    6.27    0.35
  -4   3   3    6.29    0.32
  -3  -1   3    6.33    0.35
   4  -3   3    6.25    0.32
   4  -3   3    6.39    0.32
  -3  -1   3    6.44    0.31
   1  -4   3    6.38    0.35
  -3  -1   3    5.79    0.45
   4  -3   3    6.47    0.36
  -3  -1   3    6.05    0.31
   3   1   3    5.93    0.31
   1  -4   3    6.22    0.35
   4  -3   3    6.38    0.31
  -1   4   3    6.69    0.34
  -4   0  -3    5.18    0.35
   4  -4  -3    5.23    0.30
  -4   4  -3    5.15    0.33
   4  -4  -3    5.66    0.31
   4  -4  -3    5.69    0.30
  -4   4  -3    4.36    0.37
   0   4  -3    6.08    0.34
   0  -4  -3    5.97    0.33
  -4   4  -3    5.75    0.31
   0  -4  -3    5.33    0.32
   0   4  -3    5.39    0.36
  -4   4  -3    5.93    0.42
  -4   4  -3    5.62    0.32
   0  -4  -3    5.77    0.33
   4   0   3    5.09    0.30
  -4   4   3    5.39    0.29
  -4   4   3    5.45    0.33
  -4   0   3    4.98    0.30
   0  -4   3    4.97    0.31
  -4   4   3    4.94    0.40
   0   4   3    5.43    0.35
   4  -4   3    5.12    0.29
  -4   0   3    4.68    0.44
  -4   4   3    5.25    0.30
   4  -4   3    5.05    0.29
   0  -4   3    5.64    0.32
   0  -4   3    5.48    0.32
   0   4   3    5.01    0.31
  -1  -4  -3   45.51    2.04
  -4   5  -3   45.42    2.21
  -4   5  -3   46.46    2.04
   4  -5  -3   44.66    2.03
  -4   5  -3   46.44    2.07
  -5   1  -3   45.06    2.09
  -4   5  -3   45.24    2.04
  -1  -4  -3   47.18    2.04
  -4   5  -3   39.91    2.17
   1   4  -3   46.37    2.11
   1   4  -3   46.62    2.05
   4  -5  -3   45.49    2.03
   4  -5  -3   46.21    2.04
  -1  -4  -3   45.92    2.04
  -1  -4   3   44.96    1.97
  -4   5   3   42.72    1.95
  -1  -4   3   44.47    1.97
  -4   5   3   44.78    2.00
   4  -5   3   43.08    1.96
  -4   5   3   42.74    2.13
  -4   5   3   42.47    1.97
   1   4   3   44.86    2.02
  -5   1   3   43.16    1.97
   1   4   3   44.19    1.97
   4  -5   3   44.21    1.96
   2   3  -3    5.17    0.35
  -2  -3  -3    5.03    0.30
  -3   5  -3    5.63    0.33
  -5   2  -3    5.08    0.34
   3  -5  -3    5.69    0.33
  -3   5  -3    5.51    0.36
   3  -5  -3    5.67    0.33
   3  -5  -3    5.61    0.32
   2   3  -3    5.35    0.31
  -2  -3  -3    5.20    0.30
  -2  -3  -3    5.30    0.31
  -5   2  -3    5.04    0.31
  -2  -3  -3    5.51    0.38
  -3   5   3    4.62    0.30
   2   3   3    4.93    0.29
  -2  -3   3    4.96    0.29
  -2  -3   3    5.21    0.34
  -3   5   3    5.12    0.31
  -2  -3   3    4.97    0.29
  -3   5   3    4.81    0.40
  -5   2   3    3.64    0.46
   2   3   3    5.06    0.32
  -3   5   3    5.06    0.32
  -5   2   3    4.72    0.31
  -2  -3   3    5.02    0.29
   3  -5   3    5.19    0.31
   3  -5   3    5.08    0.31
  -3  -2  -3    5.18    0.37
   3   2  -3    5.46    0.29
  -2   5  -3    5.56    0.33
  -3  -2  -3    5.31    0.29
   2  -5  -3    5.99    0.34
  -2   5  -3    5.48    0.37
   3   2  -3    5.10    0.33
  -5   3  -3    4.23    0.40
   2  -5  -3    5.15    0.33
  -5   3  -3    5.02    0.33
   2  -5  -3    5.20    0.32
  -5   3  -3    4.88    0.32
  -5   3   3    5.00    0.33
  -3  -2   3    5.30    0.32
  -2   5   3    5.22    0.42
   3   2   3    5.33    0.32
  -2   5   3    5.22    0.32
  -5   3   3    4.88    0.46
  -3  -2   3    5.21    0.29
   5  -3   3    4.73    0.30
   2  -5   3    5.00    0.32
  -2   5   3    5.23    0.35
  -2   5   3    5.04    0.31
   3   2   3    4.89    0.28
   2  -5   3    5.01    0.32
  -3  -2   3    5.25    0.28
  -5   4  -3   49.53    2.27
  -1   5  -3   47.50    2.17
  -4  -1  -3   45.55    2.16
   5  -4  -3   46.55    2.06
   4   1  -3   47.21    2.17
   1  -5  -3   45.32    2.11
   1  -5  -3   45.58    2.11
  -1   5  -3   47.46    2.12
   1  -5  -3   46.15    2.10
  -5   4  -3   48.67    2.15
  -1   5  -3   48.20    2.12
  -5   4  -3   43.05    2.11
  -4  -1   3   44.11    2.17
   5  -4   3   45.01    1.99
  -1   5   3   42.32    1.98
   5  -4   3   45.37    1.94
   1  -5   3   44.78    1.99
  -5   4   3   42.30    2.15
  -4  -1   3   42.45    1.97
   1  -5   3   43.39    1.99
  -1   5   3   45.12    2.03
   4   1   3   43.51    1.97
  -5   5  -3    4.30    0.40
   0   5  -3    4.73    0.35
  -5   0  -3    4.17    0.33
   5  -5  -3    4.31    0.27
   5  -5  -3    4.25    0.27
   0  -5  -3    4.18    0.29
   0  -5  -3    4.46    0.30
   0   5  -3    4.43    0.30
   0   5  -3    4.27    0.30
   0  -5  -3    4.04    0.29
  -5   5  -3    4.52    0.35
  -5   5  -3    4.07    0.31
  -5   5  -3    4.48    0.27
   5  -5  -3    4.44    0.27
   5  -5   3    4.23    0.27
  -5   5   3    4.23    0.40
  -5   0   3    4.49    0.44
  -5   5   3    4.12    0.26
   0  -5   3    4.57    0.30
   0   5   3    4.25    0.29
  -5   0   3    3.91    0.27
   0  -5   3    3.88    0.28
   0   5   3    4.11    0.32
   5  -5   3    4.00    0.26
   5  -5   3    4.19    0.30
  -5   5   3    4.34    0.31
  -1  -5  -3    3.47    0.26
  -5   6  -3    3.43    0.25
  -5   6  -3    3.96    0.26
   5  -6  -3    3.31    0.25
  -1  -5  -3    3.31    0.25
  -6   1  -3    2.83    0.28
   1   5  -3    3.56    0.31
   1   5  -3    3.36    0.27
   5  -6  -3    3.40    0.24
   1   5  -3    3.51    0.26
  -1  -5  -3    3.37    0.26
  -5   6  -3    3.37    0.37
   5  -6  -3    3.43    0.25
  -5   6   3    2.88    0.34
  -1  -5   3    3.27    0.25
  -6   1   3    3.03    0.24
  -6   1   3    3.10    0.41
   1   5   3    3.04    0.24
  -1  -5   3    2.97    0.24
  -5   6   3    3.12    0.23
   5  -6   3    3.23    0.24
  -5   6   3    3.37    0.27
   5  -6   3    3.16    0.23
   1   5   3    3.26    0.28
  -2  -4  -3    3.35    0.24
  -4   6  -3    3.80    0.29
  -2  -4  -3    3.09    0.23
  -6   2  -3    3.33    0.24
  -2  -4  -3    3.52    0.24
   4  -6  -3    3.51    0.25
  -4   6  -3    3.47    0.26
  -6   2  -3    3.18    0.27
   2   4  -3    3.51    0.29
   4  -6  -3    3.27    0.25
  -4   6  -3    3.39    0.26
   2   4  -3    3.63    0.26
  -4   6  -3    3.43    0.37
   4  -6  -3    3.46    0.25
   2   4  -3    3.48    0.25
   4  -6   3    3.38    0.25
  -2  -4   3    3.27    0.24
  -6   2   3    3.32    0.26
  -4   6   3    3.31    0.26
  -4   6   3    3.24    0.24
  -4   6   3    3.61    0.27
  -2  -4   3    3.45    0.24
   4  -6   3    3.40    0.25
  -4   6   3    3.10    0.35
   2   4   3    3.40    0.27
  -6   2   3    3.38    0.45
   2   4   3    3.38    0.24
   3  -6  -3   -0.01    0.04
   3   3  -3    0.07    0.05
   3   3  -3    0.08    0.04
  -3   6  -3    0.06    0.07
   3  -6  -3   -0.04    0.05
   3  -6  -3    0.01    0.06
   3   3  -3    0.03    0.04
  -6   3  -3    0.29    0.08
  -3   6  -3    0.07    0.06
  -6   3  -3    0.25    0.08
  -3   6  -3   -0.03    0.05
  -3  -3  -3    0.01    0.06
  -3  -3  -3    0.62    0.15
   3   3   3    0.02    0.05
  -6   3   3    0.06    0.10
   3  -6   3    0.11    0.06
  -3   6   3    0.05    0.04
   3  -6   3    0.03    0.04
  -3   6   3    0.07    0.06
  -3   6   3    0.06    0.06
  -6   3   3    0.08    0.05
   3   3   3    0.23    0.07
  -3   6   3    0.05    0.07
  -2   6  -3    3.71    0.28
  -4  -2  -3    3.84    0.32
  -6   4  -3    3.47    0.27
  -6   4  -3    3.47    0.27
   2  -6  -3    3.51    0.27
  -2   6  -3    3.69    0.32
   2  -6  -3    3.15    0.25
   2  -6  -3    3.54    0.27
  -2   6  -3    3.37    0.27
  -6   4   3    3.33    0.41
   2  -6   3    3.35    0.26
  -2   6   3    2.98    0.27
  -6   4   3    3.33    0.27
  -2   6   3    3.10    0.25
  -2   6   3    3.55    0.36
   2  -6   3    3.71    0.27
   1  -6  -3    3.51    0.27
  -1   6  -3    3.14    0.30
  -1   6  -3    3.43    0.28
  -5  -1  -3    3.32    0.31
   1  -6  -3    3.14    0.26
  -6   5  -3    3.70    0.40
  -6   5  -3    3.55    0.28
   1  -6  -3    3.22    0.26
  -1   6  -3    3.31    0.27
  -5  -1   3    3.20    0.36
  -6   5   3    3.25    0.27
   6  -5   3    2.96    0.25
  -1   6   3    3.03    0.28
   1  -6   3    3.17    0.26
  -1   6   3    3.29    0.26
   1  -6   3    3.10    0.26
  -6   5   3    3.45    0.39
   0  -6  -3    0.13    0.09
   0  -6  -3   -0.04    0.06
   0   6  -3    0.25    0.09
   0   6  -3   -0.03    0.06
   0  -6  -3   -0.07    0.06
  -6   0  -3    0.26    0.11
   0   6  -3    0.08    0.07
  -6   6  -3    0.22    0.13
   6  -6  -3   -0.04    0.04
  -6   6   3    0.10    0.06
   6  -6   3    0.05    0.06
   0   6   3    0.10    0.08
  -6   6   3    0.07    0.09
   0  -6   3    0.25    0.09
   0  -6   3    0.12    0.08
   0   6   3   -0.08    0.06
  -1  -6  -3    2.10    0.21
   6  -7  -3    2.33    0.21
  -1  -6  -3    2.07    0.22
  -1  -6  -3    1.86    0.21
  -6   7  -3    2.48    0.35
   1   6  -3    2.05    0.21
   1   6  -3    2.47    0.24
   6  -7  -3    2.20    0.21
  -7   1  -3    2.20    0.25
   1   6  -3    2.16    0.26
   6  -7   3    1.88    0.20
  -1  -6   3    1.96    0.21
  -6   7   3    2.03    0.23
   6  -7   3    2.02    0.33
   1   6   3    2.01    0.24
   6  -7   3    2.17    0.25
   1   6   3    2.49    0.22
  -7   1   3    2.08    0.41
  -6   7   3    1.98    0.32
  -7   1   3    2.34    0.22
  -1  -6   3    1.97    0.21
  -2  -5  -3   28.02    1.33
  -5   7  -3   26.84    1.34
   5  -7  -3   28.42    1.34
  -7   2  -3   27.68    1.39
   5  -7  -3   27.99    1.34
  -5   7  -3   27.13    1.58
   2   5  -3   27.13    1.34
  -5   7  -3   28.63    1.34
  -2  -5  -3   28.55    1.35
   5  -7  -3   28.31    1.33
   2   5  -3   27.38    1.33
  -2  -5  -3   26.82    1.32
   2   5  -3   27.71    1.42
  -5   7   3   26.13    1.51
  -5   7   3   27.40    1.33
   2   5   3   27.21    1.28
  -2  -5   3   26.64    1.27
   5  -7   3   26.79    1.29
  -7   2   3   26.47    1.30
   5  -7   3   26.77    1.28
  -2  -5   3   26.09    1.27
  -5   7   3   25.83    1.27
   2   5   3   25.79    1.33
  -7   3  -3    2.78    0.24
   4  -7  -3    2.71    0.23
   3   4  -3    2.43    0.24
  -4   7  -3    2.69    0.36
   4  -7  -3    2.55    0.22
  -4   7  -3    2.67    0.27
   4  -7  -3    2.30    0.23
  -4   7  -3    2.38    0.23
   3   4  -3    2.77    0.26
  -4   7  -3    2.28    0.23
  -4   7   3    2.08    0.31
  -7   3   3    2.46    0.51
   4  -7   3    2.85    0.24
  -4   7   3    2.17    0.22
  -4   7   3    2.34    0.24
   4  -7   3    2.06    0.21
   3   4   3    2.21    0.23
  -4   7   3    2.18    0.21
  -7   3   3    2.43    0.23
   3  -7  -3    2.64    0.24
   3  -7  -3    2.17    0.22
  -7   4  -3    2.49    0.24
  -3   7  -3    2.56    0.25
  -3   7  -3    2.81    0.25
  -3   7  -3    2.50    0.28
   3  -7  -3    2.52    0.24
  -4  -3  -3    2.54    0.29
  -3   7   3    2.16    0.22
  -7   4   3    2.10    0.49
   3  -7   3    2.29    0.23
  -3   7   3    2.64    0.34
  -7   4   3    2.40    0.24
  -3   7   3    2.62    0.26
   3  -7   3    2.33    0.23
  -2   7  -3   26.90    1.37
  -7   5  -3   27.77    1.38
  -2   7  -3   29.85    1.40
   2  -7  -3   27.47    1.36
  -2   7  -3   28.69    1.46
   2  -7  -3   27.09    1.37
  -5  -2  -3   27.60    1.45
   2  -7  -3   28.21    1.38
  -2   7   3   25.62    1.29
  -2   7   3   26.84    1.50
  -2   7   3   26.02    1.35
   2  -7   3   26.18    1.31
  -7   5   3   26.44    1.33
   2  -7   3   26.69    1.31
  -7   5   3   26.98    1.65
  -6  -1  -3    2.07    0.26
   1  -7  -3    1.82    0.24
  -1   7  -3    2.28    0.23
   1  -7  -3    2.21    0.22
  -1   7  -3    2.04    0.30
   1  -7  -3    2.20    0.23
  -1   7  -3    2.26    0.24
  -7   6  -3    1.70    0.25
  -7   6   3    2.28    0.45
  -7   6   3    2.18    0.25
  -1   7   3    2.13    0.22
   1  -7   3    2.07    0.23
   1  -7   3    2.30    0.24
  -1   7   3    2.29    0.26
   0   7  -3    1.98    0.27
  -7   0  -3    1.92    0.30
   0   7  -3    1.69    0.24
   0  -7  -3    1.86    0.24
   0   7  -3    2.00    0.31
   0  -7  -3    1.98    0.22
   0  -7   3    1.54    0.23
   7  -7   3    1.93    0.24
   0  -7   3    1.85    0.23
   0   7   3    1.63    0.23
  -7   7   3    1.81    0.26
   0   7   3    1.69    0.27
   3   5  -3    2.30    0.27
   5  -8  -3    2.43    0.25
  -5   8  -3    2.52    0.25
   5  -8  -3    2.49    0.24
   5  -8   3    2.24    0.24
   3   5   3    2.23    0.25
  -8   3   3    2.14    0.24
  -5   8   3    2.25    0.23
  -4   8  -3   21.91    1.21
  -4   8  -3   19.66    1.34
   4  -8  -3   21.90    1.12
  -4   8  -3   23.49    1.17
  -8   4  -3   22.18    1.13
   4  -8  -3   22.02    1.14
  -4   8  -3   23.59    1.15
   4  -8  -3   21.18    1.12
   4  -8   3   21.53    1.09
  -4   8   3   20.11    1.11
  -4   8   3   19.97    1.07
   4  -8   3   21.82    1.09
  -8   4   3   20.54    1.10
  -4   8   3   20.94    1.31
  -8   4   3   20.02    1.52
  -3   8  -3    2.55    0.27
  -3   8  -3    2.21    0.29
   3  -8  -3    2.31    0.24
  -8   5  -3    2.36    0.26
   3  -8  -3    2.25    0.24
  -3   8  -3    2.40    0.25
  -8   5   3    2.17    0.25
  -3   8   3    2.08    0.26
  -3   8   3    2.13    0.28
   3  -8   3    2.28    0.25
   0   0  -4  100.15    4.38
   0   0   4   91.02    3.93
   0   0   4   92.52    3.93
   0   0   4   89.77    3.95
   0   0   4   85.16    3.95
  -1   0  -4    2.21    0.17
   0  -1  -4    2.70    0.17
   0  -1  -4    3.13    0.17
   1  -1  -4    2.89    0.17
  -1   1  -4    3.21    0.17
   0   1  -4    2.95    0.17
  -1   0  -4    3.25    0.20
   1  -1   4    2.67    0.17
  -1   0   4    1.98    0.15
   1   0   4    2.55    0.17
   0   1   4    2.98    0.16
   1   0   4    1.92    0.16
  -1   0   4    1.96    0.15
   0  -1   4    2.54    0.16
   1  -1   4    2.73    0.15
   1  -1   4    2.73    0.15
   1   0   4    2.37    0.18
   1  -1   4    2.90    0.17
  -1   1   4    2.79    0.17
   0   1   4    2.72    0.16
   0   1   4    2.83    0.17
  -1   1   4    2.79    0.15
  -1   0   4    2.57    0.17
   0  -1   4    2.68    0.15
  -1   1   4    2.70    0.16
   0  -1   4    2.49    0.15
   2  -1  -4  736.74   35.97
  -2   1  -4  825.33   36.14
   1  -2  -4  891.42   36.01
  -1  -1  -4  866.39   35.99
  -2   1  -4  863.41   35.98
   1  -2  -4  887.77   36.01
  -2   1   4  715.21   32.06
  -1  -1   4  791.73   31.70
   1  -2   4  760.58   31.76
  -1  -1   4  750.39   32.01
  -2   1   4  701.87   31.71
   2   0  -4    2.21    0.14
   0  -2  -4    1.85    0.13
   2  -2  -4    2.00    0.13
  -2   2  -4    2.00    0.20
   0  -2  -4    1.82    0.13
  -2   0  -4    1.73    0.14
   0  -2  -4    1.96    0.14
   2  -2  -4    2.08    0.13
  -2   0  -4    1.87    0.15
   2   0   4    1.51    0.12
  -2   2   4    1.85    0.13
   2   0   4    1.25    0.12
  -2   0   4    1.80    0.21
   0  -2   4    1.66    0.12
   0  -2   4    2.00    0.13
   0  -2   4    1.78    0.14
   0  -2   4    1.90    0.14
  -2   2   4    1.93    0.12
  -2   2   4    1.78    0.13
   2  -2   4    1.98    0.14
   0   2   4    1.91    0.14
  -2   0   4    1.57    0.12
   0   2   4    1.83    0.12
   0   2   4    1.66    0.13
   2   0   4    1.89    0.13
   2  -2   4    1.80    0.12
   2  -2   4    1.70    0.12
  -2   0   4    1.75    0.14
  -2   0   4    1.85    0.11
   0  -2   4    1.73    0.12
   2  -2   4    1.81    0.12
   2   0   4    1.56    0.14
  -2   2   4    1.87    0.14
  -2   0   4    1.71    0.11
  -2   2   4    1.69    0.17
   3  -1  -4    1.74    0.13
  -1  -2  -4    1.61    0.12
  -1  -2  -4    1.75    0.15
  -3   1  -4    1.77    0.15
  -3   1  -4    1.70    0.11
   2  -3  -4    1.58    0.13
  -1  -2  -4    1.82    0.13
   2  -3  -4    1.72    0.13
   1   2  -4    1.72    0.13
  -2   3  -4    1.65    0.13
  -2   3   4    1.53    0.12
  -2   3   4    1.50    0.12
   1   2   4    1.51    0.11
  -3   1   4    1.51    0.13
   2  -3   4    1.52    0.13
   3  -1   4    1.29    0.12
   2  -3   4    1.62    0.12
  -1  -2   4    1.50    0.12
   1   2   4    1.50    0.13
  -1  -2   4    1.78    0.13
  -1  -2   4    1.50    0.11
   3  -1   4    1.17    0.13
   2  -3   4    1.54    0.12
  -2   3   4    1.61    0.17
  -1  -2   4    1.57    0.11
  -2   3   4    1.53    0.14
   3  -1   4    1.59    0.10
   1   2   4    1.61    0.13
  -3   1   4    1.16    0.24
  -3   1   4    1.67    0.11
  -2   3   4    1.44    0.12
   3  -1   4    1.54    0.10
   2  -3   4    1.62    0.12
  -3   1   4    1.15    0.11
   3  -2  -4    1.75    0.12
   1  -3  -4    1.85    0.13
  -1   3  -4    1.59    0.13
  -2  -1  -4    1.54    0.14
   1  -3  -4    1.69    0.13
  -2  -1  -4    1.72    0.12
   1  -3  -4    1.72    0.13
  -3   2  -4    1.92    0.19
   1  -3  -4    1.72    0.13
  -3   2   4    1.61    0.19
   2   1   4    1.62    0.12
  -3   2   4    1.62    0.12
  -3   2   4    1.63    0.13
   3  -2   4    1.50    0.10
  -1   3   4    1.63    0.12
   3  -2   4    1.53    0.10
  -2  -1   4    1.35    0.14
  -3   2   4    1.59    0.13
   2   1   4    1.69    0.11
   3  -2   4    1.46    0.11
   3  -2   4    1.69    0.13
   1  -3   4    1.45    0.13
  -1   3   4    1.65    0.17
  -2  -1   4    1.62    0.11
   1  -3   4    1.58    0.12
  -3   2   4    1.56    0.11
   2   1   4    1.67    0.13
   1  -3   4    1.62    0.13
  -1   3   4    1.67    0.14
   1  -3   4    1.42    0.12
  -2  -1   4    1.47    0.12
  -2  -1   4    1.70    0.21
  -1   3   4    1.49    0.14
   3  -2   4    1.46    0.10
  -2  -1   4    1.45    0.10
   3  -3  -4   70.38    3.01
  -3   3  -4   65.84    3.15
   0  -3  -4   68.50    3.02
  -3   0  -4   66.26    3.06
   0  -3  -4   65.13    3.02
   0  -3  -4   73.82    3.02
   3  -3  -4   69.91    3.01
   0   3  -4   70.72    3.03
   0  -3  -4   69.47    3.05
   3  -3  -4   69.14    3.01
   0  -3   4   63.23    2.81
   0   3   4   66.57    2.84
  -3   0   4   61.69    2.79
   3  -3   4   64.50    2.79
   3  -3   4   65.20    2.83
  -3   0   4   61.69    2.82
   0  -3   4   65.49    2.81
   3   0   4   64.23    2.81
  -3   0   4   58.67    2.77
  -3   3   4   64.41    2.93
  -3   3   4   67.07    2.81
  -3   0   4   64.53    2.77
  -3   3   4   66.72    2.80
   3  -3   4   64.06    2.80
   0  -3   4   62.74    2.83
   3   0   4   64.81    2.80
   0  -3   4   69.30    2.82
   0   3   4   63.67    2.84
  -3   3   4   63.42    2.83
   3  -3   4   64.25    2.79
   3   0   4   54.07    2.80
   0   3   4   64.37    2.81
  -3   3   4   65.41    2.82
   3  -4  -4    1.50    0.12
  -1  -3  -4    1.43    0.13
  -1  -3  -4    1.33    0.12
   1   3  -4    1.56    0.13
  -4   1  -4    1.24    0.14
  -1  -3  -4    1.36    0.15
  -4   1  -4    1.54    0.12
   3  -4  -4    1.42    0.13
  -1  -3  -4    1.48    0.12
  -3   4  -4    1.45    0.13
   3  -4  -4    1.40    0.12
   1   3   4    1.18    0.13
  -1  -3   4    1.27    0.12
  -4   1   4    1.30    0.28
   1   3   4    1.33    0.13
  -4   1   4    1.25    0.12
   4  -1   4    1.36    0.11
   1   3   4    1.23    0.11
  -1  -3   4    1.34    0.13
   3  -4   4    1.30    0.12
  -1  -3   4    1.24    0.12
  -3   4   4    1.16    0.11
   3  -4   4    1.46    0.14
  -1  -3   4    1.21    0.12
  -4   1   4    1.27    0.09
  -3   4   4    1.26    0.17
   3  -4   4    1.39    0.12
  -3   4   4    1.28    0.13
  -3   4   4    1.46    0.13
   4  -1   4    1.30    0.09
   3  -4   4    1.38    0.12
  -2  -2  -4  577.64   24.53
  -2  -2  -4  565.97   24.73
  -4   2  -4  568.33   24.57
   2   2  -4  574.23   24.55
  -2  -2  -4  579.21   24.53
  -4   2  -4  547.45   24.61
  -2   4  -4  588.46   24.58
   2  -4  -4  581.45   24.51
   2  -4  -4  579.97   24.58
  -2  -2  -4  594.27   24.51
   2  -4  -4  578.91   24.59
   4  -2   4  499.61   22.71
   4  -2   4  538.80   22.61
  -4   2   4  495.12   22.67
  -2  -2   4  554.16   22.69
  -4   2   4  502.79   22.65
   2   2   4  529.80   22.66
  -2   4   4  540.11   22.69
  -2  -2   4  541.16   22.66
   4  -2   4  532.77   22.63
   4  -2   4  499.53   22.64
   2  -4   4  548.58   22.73
  -2   4   4  538.64   22.80
  -2   4   4  532.01   22.88
   2  -4   4  553.98   22.74
  -2  -2   4  540.10   22.70
  -4   2   4  538.92   22.67
  -2   4   4  544.19   22.74
   2  -4   4  561.73   22.77
  -2  -2   4  554.56   22.71
   2   2   4  537.22   22.74
   4  -2   4  509.90   22.61
  -2   4   4  531.77   22.73
   2   2   4  540.01   22.74
  -4   2   4  491.07   22.69
   4  -3  -4    1.58    0.12
   1  -4  -4    1.59    0.14
   1  -4  -4    1.33    0.13
  -3  -1  -4    1.60    0.11
  -3  -1  -4    1.23    0.15
  -4   3  -4    1.68    0.19
  -4   3  -4    1.62    0.19
   1  -4  -4    1.26    0.13
  -1   4  -4    1.56    0.14
   4  -3  -4    1.35    0.11
   4  -3  -4    1.48    0.12
  -4   3  -4    1.30    0.13
   1  -4   4    1.32    0.13
   4  -3   4    1.32    0.10
  -1   4   4    1.35    0.13
   3   1   4    1.37    0.11
  -3  -1   4    1.41    0.10
  -3  -1   4    1.31    0.10
  -1   4   4    1.33    0.11
   3   1   4    1.41    0.10
   3   1   4    1.28    0.12
   1  -4   4    1.30    0.13
  -4   3   4    1.35    0.12
   4  -3   4    1.42    0.11
   4  -3   4    1.28    0.13
   1  -4   4    1.42    0.13
  -1   4   4    1.55    0.15
  -4   3   4    1.32    0.13
  -3  -1   4    1.34    0.21
  -4   3   4    1.48    0.20
  -1   4   4    1.52    0.15
  -3  -1   4    1.46    0.14
  -4   3   4    1.25    0.10
   4  -3   4    1.35    0.10
  -3  -1   4    1.26    0.10
   0  -4  -4    1.36    0.13
   4  -4  -4    1.55    0.13
  -4   0  -4    1.30    0.15
   0   4  -4    1.57    0.14
   4  -4  -4    1.35    0.12
   0  -4  -4    1.50    0.14
  -4   4  -4    1.56    0.19
  -4   4  -4    1.27    0.12
   0  -4  -4    1.50    0.14
  -4   4  -4    0.98    0.19
   4  -4  -4    1.28    0.12
   4  -4   4    1.29    0.12
   0   4   4    1.21    0.12
   4  -4   4    1.27    0.11
   0  -4   4    1.20    0.13
   0  -4   4    1.25    0.13
  -4   4   4    1.34    0.14
   0   4   4    1.42    0.15
  -4   0   4    0.81    0.22
  -4   0   4    1.13    0.12
  -4   4   4    1.35    0.11
   4   0   4    1.12    0.11
  -4   4   4    1.32    0.12
   4  -4   4    1.12    0.13
   0  -4   4    1.40    0.13
  -4   4   4    1.40    0.19
   4  -4   4    1.27    0.11
   4  -5  -4  412.19   17.64
  -5   1  -4  397.07   17.69
   4  -5  -4  413.02   17.63
  -1  -4  -4  410.94   17.71
  -1  -4  -4  414.42   17.64
  -1  -4  -4  412.35   17.64
   1   4  -4  423.71   17.72
  -4   5  -4  431.64   17.64
   1   4  -4  428.12   17.65
   4  -5  -4  413.94   17.63
  -4   5  -4  434.34   17.69
  -4   5  -4  372.97   17.80
  -4   5  -4  400.32   17.81
  -1  -4  -4  421.64   17.64
   1   4   4  401.52   16.75
  -1  -4   4  384.03   16.76
  -1  -4   4  403.74   16.76
  -1  -4   4  401.72   16.75
  -1  -4   4  399.31   16.76
  -5   1   4  364.63   16.76
   1   4   4  403.48   16.80
  -4   5   4  390.45   16.74
   4  -5   4  399.85   16.75
  -4   5   4  372.93   16.92
   4  -5   4  399.49   16.74
   4  -5   4  384.63   16.79
  -4   5   4  396.18   16.77
  -4   5   4  390.74   16.76
  -5   2  -4    0.95    0.12
  -2  -3  -4    0.79    0.11
   3  -5  -4    0.68    0.11
  -2  -3  -4    0.63    0.14
   3  -5  -4    0.75    0.11
   2   3  -4    0.71    0.13
  -2  -3  -4    0.73    0.10
   3  -5  -4    0.72    0.11
  -3   5  -4    0.71    0.11
  -2  -3  -4    0.79    0.10
  -5   2  -4    0.65    0.13
   2   3  -4    0.84    0.11
  -2  -3   4    0.39    0.10
  -3   5   4    0.63    0.10
   3  -5   4    0.73    0.12
  -3   5   4    0.69    0.12
  -3   5   4    0.81    0.12
  -3   5   4    0.66    0.16
  -2  -3   4    0.81    0.11
   3  -5   4    0.88    0.12
   3  -5   4    0.75    0.11
  -2  -3   4    0.70    0.10
   2   3   4    0.66    0.10
  -5   2   4    0.59    0.21
  -2  -3   4    0.65    0.10
   2   3   4    0.58    0.11
  -5   2   4    0.65    0.11
   3   2  -4    0.66    0.12
  -5   3  -4    0.88    0.15
  -3  -2  -4    0.83    0.15
  -2   5  -4    0.70    0.14
   2  -5  -4    0.68    0.11
   2  -5  -4    0.71    0.12
  -5   3  -4    0.67    0.12
  -2   5  -4    0.71    0.12
   3   2  -4    0.84    0.11
   2  -5  -4    0.80    0.13
  -3  -2  -4    0.89    0.11
  -3  -2   4    0.63    0.09
  -2   5   4    0.59    0.11
  -3  -2   4    0.75    0.13
  -2   5   4    0.77    0.11
   2  -5   4    0.80    0.13
  -2   5   4    0.66    0.16
  -5   3   4    0.58    0.11
  -2   5   4    0.80    0.12
   3   2   4    0.71    0.11
  -5   3   4    0.75    0.21
   3   2   4    0.63    0.09
   2  -5   4    0.79    0.12
   5  -3   4    0.78    0.12
   2  -5   4    0.60    0.10
  -3  -2   4    0.70    0.09
  -5   4  -4  422.58   18.28
  -1   5  -4  432.90   18.28
  -1   5  -4  437.41   18.22
   1  -5  -4  431.70   18.20
  -5   4  -4  396.28   18.21
   1  -5  -4  443.76   18.22
  -5   4  -4  398.60   18.35
  -4  -1  -4  410.27   18.26
   5  -4  -4  417.75   18.16
   4   1  -4  459.38   18.24
   1  -5  -4  438.78   18.22
  -4  -1   4  386.01   17.30
   5  -4   4  411.34   17.01
   5  -4   4  418.92   17.04
  -1   5   4  418.91   17.06
   1  -5   4  408.46   17.07
  -5   4   4  387.12   17.26
  -1   5   4  400.98   17.10
   4   1   4  382.67   17.04
  -5   4   4  390.34   17.07
   5  -4   4  398.71   17.07
   1  -5   4  402.43   17.07
  -4  -1   4  379.44   17.05
   1  -5   4  404.76   17.06
   0   5  -4    0.51    0.11
   0  -5  -4    0.30    0.09
   0  -5  -4    0.36    0.10
  -5   0  -4    0.58    0.14
   5  -5  -4    0.57    0.10
  -5   5  -4    0.58    0.17
   5  -5  -4    0.61    0.10
   0  -5  -4    0.59    0.11
  -5   5  -4    0.31    0.12
   5  -5  -4    0.53    0.10
  -5   5  -4    0.54    0.10
   0   5  -4    0.61    0.15
  -5   0   4    0.47    0.10
  -5   5   4    0.39    0.14
   0  -5   4    0.52    0.11
   5  -5   4    0.51    0.09
  -5   5   4    0.58    0.12
   5  -5   4    0.57    0.10
   0  -5   4    0.33    0.09
   0   5   4    0.43    0.11
  -5   5   4    0.57    0.09
   5  -5   4    0.52    0.11
  -5   0   4    0.48    0.18
   0   5   4    0.46    0.10
  -1  -5  -4    0.47    0.10
   5  -6  -4    0.45    0.10
  -5   6  -4    0.50    0.10
  -5   6  -4    0.58    0.12
  -5   6  -4    0.38    0.14
   1   5  -4    0.55    0.12
   1   5  -4    0.51    0.11
   1   5  -4    0.41    0.12
   5  -6  -4    0.40    0.09
  -1  -5  -4    0.59    0.12
  -5   6  -4    0.59    0.18
  -1  -5  -4    0.61    0.12
   5  -6  -4    0.60    0.11
  -6   1  -4    0.60    0.14
  -6   1   4    0.42    0.10
  -6   1   4    0.22    0.15
  -1  -5   4    0.55    0.12
   5  -6   4    0.54    0.10
  -5   6   4    0.39    0.11
  -5   6   4    0.47    0.09
  -1  -5   4    0.62    0.12
   5  -6   4    0.47    0.12
  -5   6   4    0.31    0.14
  -1  -5   4    0.47    0.10
   5  -6   4    0.40    0.09
   1   5   4    0.51    0.12
   1   5   4    0.43    0.10
  -4   6  -4    0.69    0.13
   2   4  -4    0.77    0.13
  -4   6  -4    0.75    0.15
  -2  -4  -4    0.75    0.16
  -2  -4  -4    0.66    0.11
  -6   2  -4    0.53    0.13
   4  -6  -4    0.76    0.13
  -2  -4  -4    0.65    0.12
  -4   6  -4    0.64    0.12
   4  -6  -4    0.83    0.13
  -2  -4  -4    0.88    0.13
   4  -6  -4    0.79    0.13
   2   4  -4    0.89    0.16
   2   4  -4    0.67    0.12
  -4   6   4    0.66    0.12
  -2  -4   4    0.58    0.11
   4  -6   4    0.70    0.12
   2   4   4    0.58    0.12
  -2  -4   4    0.83    0.13
  -4   6   4    0.69    0.19
  -2  -4   4    0.49    0.12
   4  -6   4    0.57    0.12
  -6   2   4    0.75    0.13
  -4   6   4    0.75    0.13
  -6   2   4    0.59    0.24
  -4   6   4    0.70    0.13
   2   4   4    0.51    0.10
   3   3  -4   31.97    1.51
  -6   3  -4   30.47    1.50
  -3  -3  -4   31.75    1.56
   3   3  -4   30.99    1.44
   3  -6  -4   30.96    1.46
   3   3  -4   29.86    1.44
  -3   6  -4   31.10    1.49
  -3   6  -4   32.47    1.55
  -3  -3  -4   30.51    1.44
  -6   3  -4   31.25    1.47
   3  -6  -4   31.66    1.48
  -3   6  -4   32.29    1.49
   3  -6  -4   32.98    1.48
   3  -6   4   30.69    1.41
  -3  -3   4   30.34    1.42
   3   3   4   29.59    1.40
  -3   6   4   30.16    1.39
  -6   3   4   28.18    1.41
  -3   6   4   28.92    1.56
  -3   6   4   28.72    1.38
  -3   6   4   28.85    1.42
   3   3   4   29.69    1.35
   3  -6   4   30.12    1.40
  -2   6  -4    0.77    0.16
  -2   6  -4    0.80    0.15
  -2   6  -4    0.61    0.13
  -6   4  -4    0.77    0.15
  -4  -2  -4    0.54    0.14
  -6   4  -4    0.73    0.13
   2  -6  -4    0.67    0.12
   2  -6  -4    0.70    0.13
   2  -6  -4    0.42    0.11
  -6   4   4    0.61    0.13
  -2   6   4    0.65    0.14
   2  -6   4    0.65    0.12
   2  -6   4    0.83    0.14
  -2   6   4    0.62    0.18
  -2   6   4    0.58    0.11
  -4  -2   4    0.61    0.11
  -6   4   4    0.55    0.20
   1  -6  -4    0.69    0.13
  -5  -1  -4    0.68    0.16
  -1   6  -4    0.62    0.16
  -1   6  -4    0.47    0.11
   1  -6  -4    0.45    0.11
   1  -6  -4    0.44    0.11
  -1   6  -4    0.50    0.12
  -1   6   4    0.40    0.10
  -6   5   4    0.34    0.15
  -5  -1   4    0.44    0.17
  -6   5   4    0.40    0.11
   6  -5   4    0.51    0.12
   1  -6   4    0.47    0.11
  -1   6   4    0.60    0.14
  -5  -1   4    0.60    0.11
   1  -6   4    0.59    0.13
   0  -6  -4   25.83    1.24
   0   6  -4   25.02    1.25
   0  -6  -4   25.33    1.23
   6  -6  -4   25.70    1.20
   0   6  -4   25.77    1.33
  -6   0  -4   24.41    1.30
   0   6  -4   26.18    1.25
   0  -6  -4   23.81    1.23
  -6   6  -4   23.64    1.41
  -6   0   4   23.60    1.46
   0  -6   4   23.35    1.19
  -6   6   4   23.39    1.39
   0   6   4   22.89    1.16
   0  -6   4   23.16    1.17
  -6   6   4   24.24    1.20
  -6   0   4   23.39    1.16
   0  -6   4   24.91    1.18
   0   6   4   23.69    1.22
   6  -6   4   23.77    1.20
  -1  -6  -4    0.47    0.11
   1   6  -4    0.60    0.16
  -1  -6  -4    0.55    0.13
  -6   7  -4    0.61    0.21
  -7   1  -4    0.54    0.16
   1   6  -4    0.43    0.12
   6  -7  -4    0.70    0.13
   1   6  -4    0.53    0.13
   6  -7  -4    0.46    0.12
  -1  -6  -4    0.59    0.13
  -7   1   4    0.42    0.20
   6  -7   4    0.53    0.12
  -6   7   4    0.58    0.14
   1   6   4    0.46    0.14
   6  -7   4    0.61    0.15
   6  -7   4    0.56    0.15
  -1  -6   4    0.69    0.14
  -7   1   4    0.50    0.12
  -6   7   4    0.52    0.20
   1   6   4    0.48    0.12
  -1  -6   4    0.56    0.13
  -2  -5  -4  258.23   11.10
   2   5  -4  257.55   11.07
   5  -7  -4  255.94   11.07
   5  -7  -4  253.98   11.08
  -2  -5  -4  255.62   11.07
  -7   2  -4  254.43   11.14
   2   5  -4  260.69   11.18
   5  -7  -4  258.56   11.07
  -5   7  -4  262.51   11.08
  -5   7  -4  267.18   11.10
  -2  -5  -4  252.66   11.05
  -5   7  -4  245.17   11.36
   2   5  -4  261.88   11.09
  -5   7   4  234.01   10.43
   2   5   4  238.57   10.44
  -5   7   4  244.12   10.49
   2   5   4  241.61   10.51
   5  -7   4  250.36   10.46
   5  -7   4  247.68   10.46
  -2  -5   4  245.77   10.44
  -7   2   4  235.94   10.47
  -5   7   4  242.98   10.74
  -2  -5   4  248.01   10.44
   5  -7   4  238.83   10.53
  -4   7  -4    0.65    0.16
   4  -7  -4    0.62    0.12
   3   4  -4    1.04    0.18
   3   4  -4    0.72    0.19
   4  -7  -4    0.68    0.14
  -4   7  -4    0.63    0.14
   3   4  -4    0.65    0.15
   4  -7  -4    0.76    0.14
  -4   7  -4    0.81    0.15
  -7   3  -4    0.62    0.14
   3   4   4    0.66    0.14
  -4   7   4    0.65    0.20
   4  -7   4    0.66    0.13
  -4   7   4    0.64    0.13
  -7   3   4    0.70    0.14
   4  -7   4    0.77    0.14
  -4   7   4    0.54    0.14
  -7   3   4    0.63    0.27
  -4   7   4    0.67    0.13
   3  -7  -4    0.73    0.15
   3  -7  -4    0.89    0.15
  -3   7  -4    0.74    0.15
  -7   4  -4    0.63    0.13
  -4  -3  -4    0.72    0.18
  -3   7  -4    0.77    0.16
   3  -7  -4    0.60    0.13
  -3   7  -4    0.94    0.20
   3  -7   4    0.76    0.15
  -3   7   4    0.68    0.14
   3  -7   4    0.80    0.16
  -7   4   4    0.56    0.26
  -7   4   4    0.66    0.14
  -3   7   4    0.71    0.21
  -3   7   4    0.74    0.16
  -2   7  -4  263.33   11.29
  -5  -2  -4  255.64   11.37
   2  -7  -4  261.91   11.28
   2  -7  -4  257.86   11.26
  -2   7  -4  263.70   11.38
  -2   7  -4  270.49   11.31
   2  -7  -4  265.70   11.28
  -7   5  -4  251.58   11.28
  -2   7   4  236.40   10.46
   2  -7   4  249.05   10.43
  -2   7   4  240.07   10.41
  -7   5   4  243.94   10.45
  -7   5   4  230.23   10.83
   2  -7   4  244.30   10.42
  -2   7   4  242.65   10.65
   1  -7  -4    0.45    0.12
   1  -7  -4    0.48    0.13
  -1   7  -4    0.64    0.15
   1  -7  -4    0.59    0.13
  -1   7  -4    0.70    0.15
  -1   7  -4    0.52    0.15
  -6  -1  -4    0.48    0.15
  -7   6   4    0.65    0.23
  -6  -1   4    0.67    0.24
  -1   7   4    0.40    0.13
   1  -7   4    0.56    0.13
  -1   7   4    0.40    0.11
   1  -7   4    0.51    0.14
   1  -7   4    0.47    0.12
  -7   6   4    0.52    0.14
   0   0  -5   -0.01    0.04
   0   0  -5    0.16    0.07
   0   0   5   -0.04    0.04
   0   0   5    0.01    0.04
   0   0   5    0.01    0.04
   0   0   5    0.21    0.06
  -1   0  -5    4.25    0.26
   0   1  -5    4.87    0.26
   1  -1  -5    4.47    0.25
   1  -1  -5    4.30    0.25
  -1   1  -5    4.61    0.31
   1   0  -5    3.80    0.26
   0  -1  -5    4.48    0.25
  -1   0  -5    4.47    0.28
   0  -1  -5    4.50    0.25
  -1   1  -5    4.90    0.26
   1  -1   5    4.02    0.25
   1  -1   5    4.50    0.24
   0   1   5    4.16    0.25
   0  -1   5    3.81    0.24
   1   0   5    3.32    0.24
   1   0   5    4.26    0.27
  -1   1   5    3.81    0.23
   0   1   5    4.11    0.23
  -1   1   5    3.67    0.25
   0  -1   5    4.17    0.25
  -1   0   5    4.54    0.27
   0  -1   5    4.09    0.23
  -1   1   5    4.07    0.24
  -1   0   5    4.86    0.33
   1  -1   5    4.11    0.23
   0  -1   5    4.14    0.23
   0   1   5    3.92    0.24
   1  -2  -5   52.31    2.15
   1  -2  -5   45.32    2.10
  -2   1  -5   52.10    2.13
  -1  -1  -5   47.85    2.11
   1  -2  -5   48.74    2.12
   1  -2  -5   48.82    2.12
  -2   1  -5   45.17    2.19
   1   1  -5   47.40    2.12
  -1  -1  -5   46.46    2.14
  -1  -1   5   44.62    1.92
  -1   2   5   45.55    1.92
  -2   1   5   37.54    2.03
  -1   2   5   45.75    1.96
   2  -1   5   42.81    1.93
  -2   1   5   43.41    1.90
  -1  -1   5   41.19    1.89
  -1  -1   5   36.99    2.01
  -1   2   5   43.16    1.92
  -2   1   5   46.96    1.95
   2  -1   5   44.03    1.90
  -1  -1   5   41.95    1.88
  -1   2   5   44.38    1.90
   1  -2   5   41.32    1.89
   1   1   5   44.17    1.92
   1   1   5   45.11    1.92
   1  -2   5   41.48    1.89
   1  -2   5   41.10    1.91
  -1  -1   5   41.61    1.91
   1   1   5   45.08    1.89
   2  -1   5   44.67    1.90
   2   0  -5    3.67    0.22
  -2   0  -5    3.65    0.25
  -2   2  -5    3.53    0.29
   0   2  -5    3.63    0.21
   0  -2  -5    3.43    0.21
   0  -2  -5    3.80    0.21
   0  -2  -5    3.50    0.21
  -2   0  -5    3.67    0.23
   0  -2  -5    3.54    0.22
   2  -2  -5    3.54    0.21
  -2   2   5    2.97    0.20
   2  -2   5    3.13    0.20
  -2   0   5    3.05    0.19
   0   2   5    3.48    0.20
   0   2   5    3.22    0.21
   0   2   5    3.22    0.21
   2   0   5    2.59    0.20
   2   0   5    3.07    0.21
  -2   2   5    3.09    0.19
   0  -2   5    3.16    0.19
   2  -2   5    3.28    0.19
  -2   0   5    3.60    0.32
  -2   0   5    3.23    0.20
   0  -2   5    3.08    0.19
  -2   0   5    3.21    0.22
   0  -2   5    3.04    0.21
   2  -2   5    3.31    0.22
   2  -2   5    3.22    0.19
  -2   2   5    3.41    0.19
  -2   2   5    3.36    0.26
   0  -2   5    3.36    0.21
  -2   0   5    3.33    0.19
  -2   2   5    3.44    0.21
   1   2  -5    2.48    0.17
  -2   3  -5    2.77    0.18
  -1  -2  -5    2.84    0.18
  -3   1  -5    2.86    0.22
   2  -3  -5    2.66    0.18
   2  -3  -5    2.61    0.18
  -3   1  -5    3.14    0.17
  -1  -2  -5    2.81    0.18
  -1  -2  -5    2.60    0.17
   3  -1  -5    2.82    0.19
   2  -3  -5    2.91    0.18
  -1  -2  -5    3.06    0.21
   2  -3   5    2.48    0.19
  -2   3   5    2.58    0.17
   3  -1   5    2.58    0.16
   1   2   5    2.61    0.19
   1   2   5    2.62    0.18
  -3   1   5    2.77    0.19
   2  -3   5    2.67    0.17
   3  -1   5    2.61    0.16
  -2   3   5    2.42    0.23
   2  -3   5    2.62    0.17
  -3   1   5    2.40    0.29
  -2   3   5    2.43    0.17
  -3   1   5    2.72    0.17
  -1  -2   5    2.50    0.16
  -1  -2   5    2.84    0.19
   1   2   5    2.54    0.17
   3  -1   5    1.99    0.19
  -3   1   5    2.47    0.17
  -1  -2   5    2.60    0.17
  -2   3   5    2.46    0.18
  -1  -2   5    2.60    0.17
   2  -3   5    2.54    0.17
  -1   3  -5    2.90    0.19
   3  -2  -5    2.98    0.18
  -2  -1  -5    3.10    0.18
  -2  -1  -5    2.69    0.21
   1  -3  -5    2.80    0.19
   1  -3  -5    2.81    0.18
   1  -3  -5    2.58    0.18
   2   1  -5    2.93    0.18
  -3   2  -5    2.83    0.25
   1  -3  -5    2.63    0.18
  -1   3   5    2.45    0.15
  -1   3   5    2.47    0.18
  -1   3   5    2.53    0.19
   2   1   5    2.58    0.16
   1  -3   5    2.58    0.17
  -3   2   5    2.83    0.27
   3  -2   5    2.61    0.19
   2   1   5    2.64    0.18
   3  -2   5    2.45    0.15
   1  -3   5    2.36    0.17
  -3   2   5    2.51    0.17
  -3   2   5    2.81    0.18
  -2  -1   5    1.89    0.25
   1  -3   5    2.60    0.17
  -2  -1   5    2.19    0.18
   2   1   5    2.67    0.18
  -2  -1   5    2.52    0.15
  -2  -1   5    2.49    0.16
  -2  -1   5    1.74    0.18
  -2  -1   5    2.35    0.17
  -3   2   5    2.55    0.17
  -1   3   5    2.57    0.22
   3  -2   5    2.60    0.17
   1  -3   5    2.54    0.19
   3  -2   5    2.65    0.15
  -1   3   5    2.54    0.17
  -3   0  -5    0.07    0.04
  -3   3  -5    0.02    0.02
  -3   0  -5    0.07    0.04
   3  -3  -5    0.01    0.02
  -3   3  -5    0.20    0.09
   3  -3  -5    0.14    0.04
   3  -3  -5    0.06    0.03
   0   3  -5    0.08    0.04
   0  -3  -5    0.04    0.03
   0  -3  -5    0.09    0.04
   0  -3  -5    0.04    0.04
   3   0   5    0.09    0.04
   3   0   5    0.40    0.08
   3   0   5    0.40    0.08
  -3   3   5    0.06    0.03
  -3   0   5    0.18    0.04
   3   0   5    0.21    0.05
   0   3   5    0.03    0.03
   0   3   5    0.26    0.07
   3  -3   5    0.06    0.03
  -3   0   5    0.43    0.14
  -3   0   5    0.26    0.04
  -3   0   5    0.15    0.04
   3  -3   5    0.13    0.04
   0  -3   5    0.12    0.05
   0  -3   5    0.05    0.03
  -3   3   5    0.10    0.04
   0  -3   5    0.18    0.05
   0  -3   5    0.40    0.07
   0   3   5    0.20    0.06
   3  -3   5    0.05    0.03
   3  -3   5    0.16    0.04
   0   3   5    0.36    0.09
  -3   3   5    0.20    0.06
  -1  -3  -5    1.97    0.18
  -1  -3  -5    1.79    0.14
   3  -4  -5    1.80    0.14
  -3   4  -5    1.88    0.15
  -1  -3  -5    1.81    0.15
   3  -4  -5    1.87    0.15
  -4   1  -5    2.01    0.19
  -1  -3  -5    1.79    0.15
   3  -4  -5    1.67    0.14
   1   3  -5    1.68    0.15
   3  -4   5    1.60    0.14
   4  -1   5    1.80    0.11
   1   3   5    1.60    0.14
  -3   4   5    1.65    0.17
  -3   4   5    1.80    0.21
  -4   1   5    1.70    0.12
   3  -4   5    1.73    0.16
  -4   1   5    1.70    0.15
   3  -4   5    1.77    0.14
  -4   1   5    1.82    0.27
  -1  -3   5    1.60    0.14
   1   3   5    1.78    0.16
   4  -1   5    1.59    0.16
   3  -4   5    1.69    0.14
   1   3   5    1.58    0.16
  -1  -3   5    1.75    0.14
  -3   4   5    1.78    0.15
  -3   4   5    1.90    0.14
  -1  -3   5    1.61    0.15
  -3   4   5    1.77    0.16
  -4   1   5    1.66    0.16
  -1  -3   5    1.79    0.15
  -4   2  -5   29.26    1.39
   2   2  -5   28.42    1.31
   2  -4  -5   28.58    1.33
  -2  -2  -5   28.85    1.38
   2  -4  -5   28.45    1.32
   2  -4  -5   28.76    1.33
  -2  -2  -5   29.65    1.31
  -2  -2  -5   29.17    1.31
  -2  -2  -5   29.58    1.32
  -2   4  -5   29.92    1.34
  -4   2   5   27.34    1.21
  -2  -2   5   25.83    1.20
  -2   4   5   25.59    1.20
  -2  -2   5   29.02    1.43
   2   2   5   27.53    1.20
   2  -4   5   25.75    1.21
  -2   4   5   28.98    1.34
   4  -2   5   25.43    1.17
  -2   4   5   25.74    1.21
  -2   4   5   26.26    1.24
  -2   4   5   26.74    1.26
  -4   2   5   26.89    1.20
   2   2   5   26.47    1.22
   2  -4   5   24.91    1.24
   4  -2   5   25.78    1.18
  -2  -2   5   25.84    1.19
   2   2   5   26.51    1.23
  -2  -2   5   25.71    1.19
   4  -2   5   25.72    1.17
  -4   2   5   21.51    1.40
   4  -2   5   26.44    1.24
  -4   2   5   30.80    1.34
   2  -4   5   25.79    1.22
  -2  -2   5   27.11    1.21
  -4   2   5   25.88    1.23
   2  -4   5   28.02    1.22
   4  -2   5   26.67    1.16
   4  -3  -5    1.81    0.14
  -3  -1  -5    1.77    0.18
  -3  -1  -5    2.02    0.15
  -1   4  -5    1.50    0.15
   4  -3  -5    1.96    0.14
   1  -4  -5    1.90    0.16
  -4   3  -5    1.89    0.22
   1  -4  -5    1.90    0.16
   3   1  -5    1.74    0.13
   1  -4  -5    1.74    0.15
  -4   3   5    1.44    0.14
  -1   4   5    1.83    0.13
  -3  -1   5    1.49    0.12
  -3  -1   5    1.72    0.12
   4  -3   5    1.59    0.12
  -4   3   5    1.65    0.22
  -1   4   5    1.72    0.19
  -4   3   5    1.65    0.15
   1  -4   5    1.76    0.15
  -1   4   5    1.61    0.17
   3   1   5    1.80    0.13
  -4   3   5    1.71    0.15
  -3  -1   5    1.30    0.27
   3   1   5    1.60    0.13
  -3  -1   5    1.74    0.12
   4  -3   5    1.75    0.16
   4  -3   5    1.60    0.12
   1  -4   5    1.89    0.17
   1  -4   5    1.68    0.15
   4  -3   5    1.71    0.12
  -1   4   5    1.71    0.16
  -3  -1   5    1.80    0.17
  -4   3   5    1.58    0.13
  -1   4   5    1.61    0.14
   1  -4   5    1.52    0.14
   3   1   5    1.83    0.15
   4  -4  -5    1.36    0.13
  -4   4  -5    1.71    0.20
   0  -4  -5    1.52    0.16
  -4   4  -5    1.47    0.13
   0  -4  -5    1.65    0.15
   0   4  -5    1.47    0.14
   4  -4  -5    1.40    0.13
   0  -4  -5    1.39    0.14
  -4   4  -5    1.17    0.22
   0  -4  -5    1.40    0.14
  -4   0  -5    1.52    0.17
   4  -4  -5    1.56    0.13
  -4   4   5    1.41    0.12
   0   4   5    1.36    0.15
  -4   4   5    1.37    0.20
   0   4   5    1.20    0.13
   4  -4   5    1.56    0.13
  -4   0   5    1.49    0.15
  -4   4   5    1.42    0.14
   4  -4   5    1.53    0.13
   4   0   5    1.36    0.14
   0   4   5    1.39    0.16
   4  -4   5    1.48    0.12
   0  -4   5    1.35    0.14
   0  -4   5    1.33    0.14
  -4   4   5    1.35    0.13
   4  -4   5    1.60    0.16
   0  -4   5    1.54    0.14
  -4   0   5    1.09    0.25
   0  -4   5    1.34    0.14
  -4   5  -5   23.25    1.06
  -1  -4  -5   21.71    1.05
  -1  -4  -5   21.49    1.11
  -5   1  -5   21.64    1.11
   4  -5  -5   21.51    1.05
  -1  -4  -5   21.09    1.05
  -4   5  -5   23.13    1.23
  -4   5  -5   22.61    1.21
   4  -5  -5   22.09    1.04
  -1  -4  -5   22.13    1.05
   1   4  -5   22.80    1.07
   4  -5  -5   21.92    1.04
  -4   5   5   19.76    0.98
   1   4   5   20.82    1.04
   4  -5   5   21.99    0.99
   1   4   5   19.86    0.99
  -1  -4   5   20.47    1.01
  -5   1   5   22.23    1.31
  -4   5   5   20.17    1.00
  -1  -4   5   20.46    1.00
  -1  -4   5   20.52    0.99
   4  -5   5   20.52    1.04
  -5   1   5   19.63    1.01
  -1  -4   5   21.48    1.01
   4  -5   5   21.13    0.99
  -4   5   5   20.93    1.16
   4  -5   5   20.87    0.99
  -4   5   5   20.75    1.01
   3  -5  -5    1.60    0.15
  -5   2  -5    1.68    0.15
  -2  -3  -5    1.52    0.18
  -5   2  -5    1.36    0.17
   3  -5  -5    1.50    0.15
  -3   5  -5    1.42    0.15
  -2  -3  -5    1.30    0.13
  -2  -3  -5    1.72    0.14
  -2  -3  -5    1.42    0.14
   3  -5  -5    1.55    0.14
   2   3  -5    1.34    0.13
   3  -5   5    1.40    0.14
  -3   5   5    1.27    0.20
   3  -5   5    1.31    0.14
  -2  -3   5    1.41    0.13
   3  -5   5    1.23    0.13
   2   3   5    1.54    0.15
   2   3   5    1.22    0.14
  -5   2   5    1.40    0.15
  -2  -3   5    1.35    0.13
   2   3   5    1.27    0.12
   3  -5   5    1.62    0.17
  -2  -3   5    1.23    0.12
  -5   2   5    1.27    0.30
  -3   5   5    1.54    0.15
  -2  -3   5    1.07    0.18
  -3   5   5    1.45    0.14
  -3   5   5    1.42    0.15
   3   2  -5    1.41    0.13
   2  -5  -5    1.60    0.16
  -2   5  -5    1.21    0.16
  -5   3  -5    1.55    0.18
  -3  -2  -5    1.57    0.18
   2  -5  -5    1.13    0.15
   2  -5  -5    1.50    0.15
  -5   3   5    1.25    0.28
   2  -5   5    1.69    0.16
   2  -5   5    1.44    0.15
  -2   5   5    1.44    0.20
  -3  -2   5    1.72    0.22
  -3  -2   5    1.32    0.12
   3   2   5    1.50    0.12
   3   2   5    1.40    0.15
  -2   5   5    1.42    0.13
   2  -5   5    1.27    0.14
  -5   3   5    1.22    0.14
   5  -3   5    1.33    0.14
  -3  -2   5    1.50    0.13
  -2   5   5    1.46    0.15
   2  -5   5    1.40    0.16
  -2   5   5    1.33    0.16
  -3  -2   5    1.41    0.12
  -5   4  -5   22.82    1.18
   1  -5  -5   23.26    1.09
   5  -4  -5   22.24    1.04
  -1   5  -5   21.60    1.08
   1  -5  -5   21.72    1.07
   5  -4  -5   23.00    1.04
   1  -5  -5   23.35    1.09
  -4  -1  -5   20.83    1.13
  -1   5   5   21.45    1.02
   1  -5   5   20.50    1.01
   5  -4   5   21.58    1.03
   5  -4   5   21.92    0.98
  -5   4   5   20.92    1.03
  -5   4   5   21.24    1.21
   1  -5   5   20.39    1.05
  -4  -1   5   21.13    1.03
  -4  -1   5   18.15    1.22
   5  -4   5   21.02    0.97
   4   1   5   20.56    0.99
   1  -5   5   20.95    1.02
   1  -5   5   21.71    1.03
  -1   5   5   21.01    1.06
  -1   5   5   20.62    1.13
  -5   5  -5    1.41    0.22
   0  -5  -5    1.11    0.16
   0  -5  -5    1.02    0.16
  -5   0  -5    1.14    0.19
  -5   5  -5    0.88    0.20
   0  -5  -5    1.22    0.16
   0   5  -5    1.25    0.21
   5  -5  -5    1.24    0.12
   5  -5  -5    1.30    0.13
   5  -5  -5    1.12    0.12
   0   5  -5    1.07    0.16
   0   5   5    1.19    0.16
   5  -5   5    1.19    0.12
  -5   0   5    1.20    0.14
   0  -5   5    1.02    0.15
   0  -5   5    1.17    0.17
  -5   0   5    0.55    0.21
   0  -5   5    1.11    0.15
  -5   5   5    1.02    0.23
   0   5   5    1.24    0.19
   5  -5   5    1.06    0.17
   5  -5   5    1.26    0.13
   0  -5   5    1.17    0.17
  -5   5   5    1.38    0.19
  -5   5   5    1.19    0.12
   5  -6  -5    1.09    0.15
  -1  -5  -5    1.01    0.15
  -5   6  -5    0.94    0.15
   1   5  -5    0.91    0.15
   5  -6  -5    0.92    0.14
  -6   1  -5    0.77    0.17
  -1  -5  -5    0.95    0.15
   5  -6  -5    1.13    0.15
  -5   6  -5    1.09    0.25
  -5   6  -5    0.84    0.14
  -1  -5  -5    0.94    0.15
   1   5  -5    0.80    0.17
  -5   6  -5    1.08    0.24
  -1  -5   5    1.09    0.17
  -1  -5   5    1.10    0.17
  -1  -5   5    0.83    0.14
   5  -6   5    1.02    0.18
   1   5   5    1.00    0.17
  -5   6   5    1.05    0.15
  -5   6   5    0.78    0.15
   5  -6   5    0.87    0.14
  -5   6   5    0.93    0.24
   1   5   5    0.89    0.15
   5  -6   5    1.05    0.15
  -6   1   5    0.62    0.24
  -6   1   5    0.93    0.16
  -6   2  -5    1.00    0.19
  -2  -4  -5    0.98    0.14
   2   4  -5    1.11    0.18
  -2  -4  -5    1.16    0.15
   2   4  -5    1.10    0.16
   4  -6  -5    1.32    0.17
  -2  -4  -5    0.88    0.18
  -4   6  -5    1.09    0.16
  -2  -4  -5    0.97    0.14
   4  -6  -5    0.84    0.14
  -4   6  -5    1.04    0.18
   4  -6  -5    0.77    0.13
  -4   6   5    0.90    0.21
  -2  -4   5    0.53    0.13
   2   4   5    0.78    0.15
   4  -6   5    0.82    0.13
   2   4   5    0.88    0.13
  -4   6   5    0.97    0.15
  -2  -4   5    1.01    0.14
   4  -6   5    0.66    0.12
  -4   6   5    1.04    0.14
  -2  -4   5    0.99    0.14
  -2  -4   5    0.97    0.14
   4  -6   5    0.83    0.16
  -6   2   5    1.19    0.32
  -6   2   5    0.78    0.14
  -4   6   5    1.09    0.16
  -3  -3  -5    0.03    0.04
   3  -6  -5    0.04    0.05
  -6   3  -5    0.05    0.05
  -3  -3  -5    0.01    0.04
   3   3  -5    0.14    0.06
   3  -6  -5    0.02    0.05
  -3   6  -5    0.20    0.09
  -3   6  -5    0.07    0.05
   3   3  -5    0.27    0.09
   3  -6  -5    0.19    0.07
  -6   3  -5    0.03    0.05
  -3   6   5    0.50    0.16
  -3  -3   5    0.06    0.05
  -3   6   5    0.04    0.04
  -6   3   5    0.07    0.06
  -3   6   5    0.05    0.05
  -3  -3   5    0.17    0.06
  -6   3   5   -0.01    0.08
   3   3   5    0.02    0.03
  -3   6   5    0.21    0.07
   3  -6   5    0.07    0.06
   3  -6   5    0.24    0.08
   3  -6   5    0.28    0.09
   3   3   5    0.04    0.04
  -2   6  -5    0.75    0.14
   2  -6  -5    0.97    0.15
   2  -6  -5    0.92    0.16
  -6   4  -5    1.01    0.19
  -4  -2  -5    1.01    0.20
  -2   6  -5    1.15    0.20
   2  -6  -5    0.66    0.13
   2  -6   5    0.86    0.14
  -6   4   5    0.66    0.23
  -6   4   5    0.83    0.14
  -2   6   5    0.83    0.14
  -2   6   5    0.82    0.20
   2  -6   5    0.81    0.16
  -4  -2   5    1.05    0.16
  -2   6   5    1.04    0.18
   2  -6   5    0.82    0.14
  -1   6  -5    1.08    0.17
   1  -6  -5    0.87    0.15
   1  -6  -5    0.89    0.16
   1  -6  -5    0.98    0.17
  -6   5  -5    1.01    0.20
  -5  -1  -5    0.69    0.17
  -1   6  -5    0.76    0.17
   1  -6   5    0.78    0.16
  -1   6   5    0.89    0.17
  -1   6   5    1.02    0.23
  -1   6   5    0.80    0.14
  -6   5   5    0.66    0.21
  -6   5   5    0.68    0.14
   6  -5   5    0.97    0.17
  -5  -1   5    0.73    0.24
   1  -6   5    1.02    0.16
   1  -6   5    0.67    0.13
  -5  -1   5    0.80    0.14
  -6   0  -5    0.06    0.07
   0   6  -5    0.41    0.14
   0   6  -5   -0.02    0.04
   0  -6  -5    0.03    0.06
   0   6  -5    0.30    0.11
   6  -6  -5   -0.01    0.04
   0  -6  -5    0.02    0.05
   0  -6  -5   -0.04    0.05
   0  -6   5   -0.02    0.04
  -6   0   5    0.01    0.05
   6  -6   5    0.15    0.08
  -6   6   5   -0.03    0.07
   0   6   5    0.00    0.05
   0  -6   5    0.08    0.07
  -6   0   5    1.00    0.30
   0  -6   5    0.02    0.06
   0   6   5   -0.01    0.06
  -6   6   5    0.04    0.06
  -7   1  -5    0.68    0.18
  -6   7  -5    0.47    0.19
   6  -7  -5    0.52    0.12
   1   6  -5    0.78    0.16
  -1  -6  -5    0.67    0.14
   1   6  -5    0.62    0.17
   1   6  -5    0.57    0.13
   6  -7  -5    0.64    0.14
  -1  -6  -5    0.56    0.13
  -1  -6  -5    0.69    0.15
  -6   7   5    0.72    0.16
   6  -7   5    0.65    0.15
  -7   1   5    0.40    0.22
  -6   7   5    0.65    0.22
   1   6   5    0.58    0.13
  -7   1   5    0.57    0.13
  -1  -6   5    0.46    0.12
   6  -7   5    0.59    0.13
   1   6   5    0.50    0.14
   6  -7   5    0.48    0.15
  -1  -6   5    0.81    0.15
  -5   7  -5   12.76    0.72
  -2  -5  -5   12.72    0.82
   2   5  -5   12.74    0.79
  -5   7  -5   14.05    0.89
  -5   7  -5   13.26    0.94
   2   5  -5   13.88    0.74
  -2  -5  -5   12.83    0.70
  -7   2  -5   13.08    0.78
  -5   7  -5   13.88    0.74
   5  -7  -5   12.81    0.71
   5  -7  -5   13.02    0.72
   5  -7  -5   13.34    0.71
  -2  -5  -5   13.48    0.71
   2   5  -5   12.94    0.72
   2   5   5   12.46    0.67
  -5   7   5   13.67    0.91
   5  -7   5   12.78    0.75
  -2  -5   5   12.80    0.68
   5  -7   5   12.14    0.68
  -7   2   5   12.22    1.01
  -5   7   5   12.02    0.71
   5  -7   5   12.78    0.69
  -2  -5   5   12.06    0.67
  -5   7   5   11.93    0.67
  -7   2   5   11.45    0.69
   2   5   5   12.88    0.74
   4  -7  -5    0.82    0.15
   4  -7  -5    0.58    0.13
  -4   7  -5    0.60    0.13
  -3  -4  -5    0.67    0.18
  -4   7  -5    0.85    0.16
   3   4  -5    0.56    0.14
   3   4  -5    0.75    0.16
   3   4  -5    0.88    0.14
  -7   3  -5    0.59    0.15
  -4   7  -5    0.54    0.15
   4  -7  -5    0.74    0.15
  -7   3   5    0.67    0.14
  -4   7   5    0.66    0.15
  -4   7   5    0.64    0.13
  -7   3   5    0.62    0.27
   4  -7   5    0.51    0.13
   4  -7   5    0.61    0.13
  -4   7   5    0.62    0.13
   4  -7   5    0.53    0.14
  -4   7   5    0.62    0.20
   3   4   5    0.60    0.13
  -7   4  -5    0.63    0.20
  -3   7  -5    0.66    0.15
   3  -7  -5    0.85    0.16
   3  -7  -5    0.71    0.15
  -4  -3  -5    0.82    0.19
  -3   7  -5    0.85    0.19
  -3   7  -5    0.65    0.15
   3  -7  -5    0.73    0.15
   3  -7   5    0.45    0.12
  -3   7   5    0.78    0.22
  -7   4   5    0.64    0.30
  -3   7   5    0.52    0.14
  -3   7   5    0.63    0.13
   3  -7   5    0.70    0.15
  -7   4   5    0.57    0.14
   3  -7   5    0.79    0.18
   2  -7  -5   13.39    0.76
  -5  -2  -5   13.31    0.83
   2  -7  -5   13.41    0.75
  -2   7  -5   13.18    0.83
  -2   7  -5   14.46    0.79
  -2   7  -5   13.52    0.76
   2  -7  -5   13.76    0.77
  -2   7   5   11.69    0.74
  -2   7   5   12.79    0.71
   2  -7   5   12.87    0.72
  -7   5   5   12.44    1.01
   2  -7   5   12.81    0.76
  -2   7   5   12.96    0.87
   2  -7   5   12.37    0.71
  -7   5   5   12.12    0.73
   1  -7  -5    0.45    0.13
   1  -7  -5    0.53    0.13
  -1   7  -5    0.66    0.18
  -1   7  -5    0.52    0.14
  -6  -1  -5    0.49    0.16
   1  -7  -5    0.59    0.13
  -1   7  -5    0.51    0.14
  -7   6   5    0.52    0.14
   1  -7   5    0.39    0.13
  -7   6   5    0.65    0.26
   1  -7   5    0.52    0.14
   1  -7   5    0.53    0.14
  -1   7   5    0.59    0.14
  -6  -1   5    0.50    0.23
  -1   7   5    0.45    0.17
  -1   7   5    0.49    0.15
   0   0  -6  377.01   16.30
   0   0  -6  384.19   16.34
   0   0   6  348.44   15.04
   0   0   6  355.74   15.15
   0   0   6  351.01   15.00
   0   0   6  349.91   15.12
   0   1  -6    2.91    0.25
   1   0  -6    2.17    0.17
   0  -1  -6    2.54    0.18
  -1   0  -6    2.02    0.19
   0  -1  -6    2.35    0.17
  -1   0  -6    2.30    0.18
  -1   1  -6    2.60    0.18
  -1   1  -6    2.66    0.22
   0   1  -6    2.37    0.17
   1  -1  -6    2.39    0.17
  -1   1   6    2.44    0.16
   0  -1   6    2.32    0.16
   1  -1   6    1.63    0.16
   1  -1   6    1.87    0.15
  -1   0   6    2.54    0.23
   0  -1   6    2.12    0.15
   0  -1   6    2.18    0.17
   0   1   6    2.09    0.16
  -1   1   6    1.98    0.15
   1   0   6    2.28    0.16
   1   0   6    1.58    0.16
  -1   1   6    2.00    0.19
   1  -1   6    1.88    0.15
  -1   1   6    2.06    0.16
   0  -1   6    1.63    0.17
   0   1   6    2.25    0.17
   0  -1   6    1.89    0.16
  -1   1   6    1.73    0.16
  -1   0   6    1.44    0.16
  -1   0   6    2.29    0.18
   1   0   6    2.30    0.19
  -1   1   6    2.05    0.16
   0   1   6    2.01    0.14
   1   0   6    2.01    0.15
  -1   0   6    2.07    0.15
  -1   0   6    1.93    0.15
  -1   0   6    1.50    0.15
   1  -1   6    2.01    0.17
   1  -2  -6  185.50    7.91
   2  -1  -6  173.68    7.97
   1   1  -6  192.32    7.92
  -2   1  -6  185.46    7.93
   1  -2  -6  178.18    7.89
  -1  -1  -6  183.23    7.91
  -1   2  -6  184.63    7.91
   1  -2  -6  186.90    7.91
  -1  -1  -6  180.53    7.94
   1   1  -6  193.28    7.92
  -2   1   6  148.12    7.13
   1   1   6  168.28    7.16
  -1   2   6  164.35    7.10
   1   1   6  172.14    7.12
   1  -2   6  167.78    7.14
  -2   1   6  151.83    7.13
  -1   2   6  180.09    7.20
  -1   2   6  175.21    7.15
  -1  -1   6  171.06    7.13
  -1  -1   6  175.04    7.12
  -1  -1   6  164.15    7.14
  -1   2   6  172.01    7.12
   2  -1   6  138.28    7.11
  -1  -1   6  150.65    7.15
   1  -2   6  172.44    7.16
   1  -2   6  162.87    7.11
   1  -2   6  154.12    7.11
  -2   1   6  182.44    7.18
  -2   1   6  166.56    7.14
  -2   1   6  170.51    7.14
  -1   2   6  164.22    7.14
  -1  -1   6  163.67    7.16
   1   1   6  176.62    7.15
   0  -2  -6    1.79    0.14
   2  -2  -6    1.77    0.13
   0   2  -6    1.91    0.14
   2  -2  -6    1.99    0.14
  -2   0  -6    1.65    0.16
   0  -2  -6    1.74    0.14
  -2   2  -6    1.87    0.13
   0  -2  -6    1.66    0.14
  -2   2  -6    1.69    0.19
   0  -2  -6    1.71    0.13
   2   0  -6    1.62    0.14
  -2   0  -6    1.94    0.15
  -2   0   6    1.42    0.15
   0   2   6    1.58    0.14
   2   0   6    1.27    0.12
  -2   2   6    1.66    0.18
   0  -2   6    1.46    0.12
  -2   0   6    1.56    0.15
   2   0   6    1.70    0.14
   0   2   6    1.71    0.14
  -2   2   6    1.66    0.13
  -2   0   6    1.71    0.15
   2   0   6    1.32    0.14
   0  -2   6    1.55    0.12
   0  -2   6    1.52    0.14
   0  -2   6    1.70    0.15
   2  -2   6    1.62    0.12
  -2   0   6    1.37    0.12
   0   2   6    1.71    0.15
   2   0   6    1.33    0.15
   2  -2   6    1.60    0.12
   2  -2   6    1.49    0.13
  -2   2   6    1.56    0.14
   0   2   6    1.84    0.13
   2  -2   6    1.61    0.15
  -2   2   6    1.59    0.13
  -2   2   6    1.61    0.14
  -2   0   6    1.86    0.22
  -2   0   6    1.38    0.13
   2  -3  -6    1.46    0.12
  -1  -2  -6    1.71    0.14
   2  -3  -6    1.59    0.13
  -1  -2  -6    1.67    0.13
   3  -1  -6    1.62    0.14
  -2   3  -6    1.55    0.13
  -1  -2  -6    1.62    0.13
  -1  -2  -6    1.61    0.15
  -3   1  -6    1.48    0.17
   2  -3  -6    1.47    0.10
   1   2  -6    1.36    0.12
   3  -1  -6    1.68    0.14
   2  -3  -6    1.55    0.13
  -3   1  -6    1.72    0.13
  -1  -2   6    1.45    0.14
  -2   3   6    1.46    0.14
  -3   1   6    1.50    0.12
   3  -1   6    1.41    0.15
   2  -3   6    1.36    0.12
  -2   3   6    1.33    0.12
  -3   1   6    1.15    0.13
   1   2   6    1.53    0.14
   2  -3   6    1.39    0.12
  -1  -2   6    1.36    0.13
   2  -3   6    1.36    0.13
  -3   1   6    1.30    0.25
  -1  -2   6    1.31    0.12
  -3   1   6    1.45    0.13
  -2   3   6    1.40    0.17
  -2   3   6    1.40    0.13
   1   2   6    1.65    0.14
   2  -3   6    1.46    0.14
   3  -1   6    1.36    0.12
  -2   3   6    1.39    0.12
  -3   1   6    1.33    0.12
   1   2   6    1.76    0.13
  -1  -2   6    1.53    0.12
   3  -1   6    1.17    0.13
   3  -1   6    1.29    0.12
  -3   1   6    1.59    0.14
   2  -3   6    1.45    0.12
  -3   2  -6    1.01    0.19
   1  -3  -6    1.69    0.13
  -2  -1  -6    1.44    0.15
  -2  -1  -6    1.69    0.13
  -1   3  -6    1.47    0.13
   3  -2  -6    1.45    0.13
   1  -3  -6    1.43    0.13
   3  -2  -6    1.34    0.13
  -2  -1  -6    1.54    0.12
   1  -3  -6    1.37    0.12
   1  -3  -6    1.48    0.12
   2   1  -6    1.64    0.13
   2   1   6    1.45    0.12
  -1   3   6    1.43    0.16
  -1   3   6    1.47    0.14
   3  -2   6    1.59    0.13
   1  -3   6    1.26    0.12
   3  -2   6    1.29    0.11
  -2  -1   6    0.96    0.12
  -1   3   6    1.60    0.12
  -1   3   6    1.22    0.10
   2   1   6    1.73    0.14
   1  -3   6    1.36    0.12
   1  -3   6    1.45    0.14
  -3   2   6    1.29    0.12
  -3   2   6    1.24    0.19
  -2  -1   6    1.34    0.11
  -2  -1   6    1.12    0.16
   1  -3   6    1.40    0.12
  -3   2   6    1.32    0.13
  -3   2   6    1.03    0.13
  -3   2   6    1.36    0.12
   3  -2   6    1.37    0.14
   2   1   6    1.47    0.13
  -2  -1   6    1.31    0.12
  -1   3   6    1.43    0.14
   3  -2   6    1.42    0.11
   1  -3   6    1.36    0.14
  -2  -1   6    1.06    0.23
  -2  -1   6    1.48    0.11
   0  -3  -6  236.21   10.28
   0  -3  -6  235.48   10.29
   0  -3  -6  230.29   10.31
   0  -3  -6  235.68   10.29
  -3   0  -6  238.77   10.35
   0   3  -6  231.58   10.29
  -3   3  -6  253.49   10.44
  -3   3  -6  234.52   10.27
   3   0  -6  245.35   10.28
   3  -3  -6  241.63   10.28
   3   0  -6  260.14   10.29
  -3   0  -6  241.05   10.30
   3  -3  -6  242.64   10.29
   3   0   6  203.21    9.34
  -3   0   6  226.06    9.37
   0  -3   6  221.04    9.34
  -3   3   6  214.48    9.33
   3  -3   6  207.68    9.29
   0   3   6  228.38    9.38
  -3   0   6  222.25    9.29
   3  -3   6  210.42    9.29
   3  -3   6  217.30    9.29
   0   3   6  210.56    9.30
   3   0   6  212.06    9.30
   3  -3   6  214.05    9.31
  -3   3   6  229.08    9.34
  -3   3   6  214.56    9.32
  -3   3   6  230.28    9.31
  -3   3   6  227.62    9.47
   3   0   6  222.68    9.31
  -3   0   6  224.73    9.28
   0  -3   6  203.51    9.30
  -3   0   6  213.92    9.31
   0   3   6  216.65    9.34
   0   3   6  218.83    9.34
  -3   0   6  219.05    9.56
   3  -3   6  230.13    9.36
   0  -3   6  211.80    9.30
  -3   0   6  202.04    9.31
   3  -4  -6    1.34    0.12
  -1  -3  -6    1.06    0.11
   3  -4  -6    1.13    0.12
  -4   1  -6    1.31    0.16
  -3   4  -6    1.26    0.24
   4  -1  -6    1.16    0.12
  -1  -3  -6    1.10    0.11
   4  -1  -6    1.03    0.11
  -3   4  -6    1.13    0.12
   1   3  -6    1.14    0.12
  -1  -3  -6    1.07    0.12
   3  -4  -6    1.15    0.12
  -1  -3  -6    1.17    0.14
  -4   1   6    1.24    0.26
   4  -1   6    0.86    0.13
   1   3   6    1.01    0.12
   1   3   6    1.15    0.11
  -1  -3   6    1.04    0.11
  -3   4   6    1.16    0.17
   1   3   6    1.09    0.13
  -4   1   6    1.06    0.10
   3  -4   6    1.11    0.11
  -3   4   6    1.07    0.12
   4  -1   6    1.11    0.14
  -3   4   6    1.14    0.14
  -1  -3   6    1.02    0.11
   4  -1   6    1.10    0.09
  -1  -3   6    1.17    0.12
  -3   4   6    1.08    0.12
  -4   1   6    1.02    0.14
   3  -4   6    1.15    0.11
   3  -4   6    0.99    0.11
   4  -1   6    1.15    0.10
  -1  -3   6    1.13    0.13
  -3   4   6    1.19    0.12
  -4   1   6    1.06    0.10
   3  -4   6    1.23    0.14
   2  -4  -6  116.74    5.29
   2  -4  -6  118.53    5.28
  -2  -2  -6  128.80    5.27
  -2   4  -6  120.06    5.29
  -2  -2  -6  124.40    5.28
   4  -2  -6  124.99    5.29
   2   2  -6  117.85    5.27
  -4   2  -6  127.80    5.40
  -2  -2  -6  121.06    5.34
  -2  -2   6  110.26    5.15
  -2  -2   6  111.41    4.87
   2   2   6  120.40    4.89
   4  -2   6  104.75    4.93
  -2   4   6  111.74    4.95
  -2  -2   6  102.12    4.96
  -2  -2   6  114.23    4.91
   2  -4   6  111.25    4.94
  -2   4   6  113.76    4.88
   2  -4   6  113.83    4.90
   2  -4   6  110.59    4.90
   4  -2   6  118.00    4.89
   4  -2   6  111.50    4.86
  -4   2   6  116.25    4.89
  -2  -2   6  111.65    4.88
  -4   2   6  128.67    4.91
  -2   4   6  111.36    4.92
   2  -4   6  110.74    4.89
   2   2   6  109.64    4.90
  -2  -2   6  103.39    4.88
   4  -2   6  111.98    4.85
   2   2   6  115.69    4.92
  -2   4   6  116.57    5.03
  -4   2   6  122.73    4.89
  -2   4   6  112.68    4.89
  -4   2   6  115.44    4.93
  -4   3  -6    1.29    0.11
  -3  -1  -6    1.15    0.15
   3   1  -6    1.16    0.11
   4  -3  -6    1.11    0.11
   4  -3  -6    1.30    0.12
   1  -4  -6    1.04    0.12
   1  -4  -6    1.15    0.12
  -3  -1  -6    1.03    0.12
  -1   4  -6    1.20    0.15
  -4   3  -6    0.96    0.20
   1  -4  -6    1.11    0.12
   1  -4  -6    1.29    0.13
  -1   4   6    1.18    0.16
  -1   4   6    1.33    0.15
   4  -3   6    1.08    0.10
  -1   4   6    1.21    0.16
  -4   3   6    0.96    0.15
  -1   4   6    1.23    0.12
  -4   3   6    1.06    0.12
   4  -3   6    1.03    0.10
   3   1   6    1.20    0.13
   3   1   6    1.22    0.12
  -4   3   6    1.11    0.13
   1  -4   6    1.09    0.12
  -1   4   6    1.18    0.14
  -4   3   6    1.21    0.24
   4  -3   6    1.21    0.14
   1  -4   6    1.12    0.14
   4  -3   6    1.08    0.11
   4  -3   6    1.20    0.10
  -3  -1   6    1.06    0.10
  -3  -1   6    0.75    0.22
  -3  -1   6    0.95    0.15
  -3  -1   6    1.04    0.09
  -4   3   6    1.24    0.12
   1  -4   6    1.07    0.12
   1  -4   6    1.06    0.12
   3   1   6    1.14    0.11
   4  -4  -6    1.00    0.11
  -4   0  -6    1.21    0.19
   4  -4  -6    1.20    0.12
  -4   4  -6    1.12    0.22
   0   4  -6    1.22    0.15
  -4   4  -6    1.19    0.18
   0  -4  -6    0.92    0.13
   0  -4  -6    0.87    0.13
  -4   4  -6    0.99    0.11
   4  -4  -6    1.06    0.13
   0  -4  -6    1.18    0.13
   0  -4  -6    1.01    0.16
   4  -4   6    0.92    0.10
   4   0   6    0.67    0.13
   4  -4   6    0.96    0.10
   0  -4   6    0.83    0.14
   0   4   6    0.95    0.15
   0  -4   6    0.78    0.12
  -4   4   6    1.18    0.13
   0   4   6    1.06    0.14
   0  -4   6    1.00    0.14
  -4   4   6    1.10    0.23
  -4   4   6    1.22    0.12
   0   4   6    1.01    0.15
   4  -4   6    1.19    0.14
   0   4   6    1.10    0.14
  -4   4   6    1.12    0.13
   4  -4   6    0.92    0.10
  -4   4   6    1.10    0.13
  -4   0   6    1.14    0.27
   0  -4   6    0.83    0.12
  -4   0   6    1.03    0.15
  -1  -4  -6   90.90    4.08
  -1  -4  -6   91.54    4.01
  -1  -4  -6   90.89    4.01
  -5   1  -6   90.32    4.09
  -1  -4  -6   90.35    4.00
  -4   5  -6   96.89    4.21
   4  -5  -6   88.62    4.01
   4  -5  -6   90.73    4.00
   4  -5  -6   91.23    4.00
  -4   5  -6   93.59    4.01
   1   4  -6   93.51    4.02
   4  -5   6   85.78    3.80
  -4   5   6   86.44    4.00
   4  -5   6   85.69    3.86
   1   4   6   87.28    3.85
  -5   1   6   86.57    3.84
  -1  -4   6   87.38    3.81
  -1  -4   6   87.61    3.82
  -4   5   6   83.47    3.79
  -4   5   6   86.23    3.83
   4  -5   6   86.73    3.81
   4  -5   6   87.28    3.80
   1   4   6   86.15    3.85
  -1  -4   6   87.57    3.81
  -5   1   6   96.53    4.21
  -1  -4   6   87.67    3.83
   1   4   6   83.69    3.80
  -4   5   6   85.30    3.83
  -5   2  -6    0.89    0.17
   3  -5  -6    0.66    0.11
  -2  -3  -6    0.85    0.12
   3  -5  -6    0.83    0.13
  -2  -3  -6    0.78    0.12
  -2  -3  -6    0.65    0.10
  -3   5  -6    0.80    0.13
   2   3  -6    0.78    0.12
  -2  -3  -6    0.62    0.14
   3  -5  -6    0.88    0.13
  -2  -3   6    0.76    0.11
  -2  -3   6    0.79    0.12
   3  -5   6    0.87    0.13
  -5   2   6    0.70    0.23
  -3   5   6    0.65    0.11
  -3   5   6    0.69    0.12
   3  -5   6    0.95    0.16
  -3   5   6    0.64    0.16
   3  -5   6    0.78    0.12
  -5   2   6    0.80    0.13
   2   3   6    0.78    0.11
   2   3   6    0.72    0.13
  -2  -3   6    0.80    0.15
  -3   5   6    0.72    0.12
  -2  -3   6    0.82    0.12
   3  -5   6    0.72    0.12
   2   3   6    0.64    0.12
   2  -5  -6    0.73    0.12
  -2   5  -6    0.82    0.13
   2  -5  -6    0.83    0.13
   3   2  -6    0.81    0.11
  -3  -2  -6    0.57    0.13
  -5   3  -6    1.08    0.20
   2  -5  -6    0.76    0.13
  -2   5   6    0.72    0.17
   3   2   6    0.88    0.11
   3   2   6    0.69    0.11
   5  -3   6    0.91    0.15
   3   2   6    0.72    0.12
   2  -5   6    0.56    0.10
  -3  -2   6    0.91    0.09
  -3  -2   6    0.76    0.10
  -3  -2   6    0.88    0.24
  -3  -2   6    0.57    0.13
  -5   3   6    0.62    0.21
  -5   3   6    0.69    0.13
  -2   5   6    0.84    0.13
   2  -5   6    0.86    0.13
  -2   5   6    0.66    0.13
  -2   5   6    0.61    0.13
  -2   5   6    0.76    0.11
  -3  -2   6    0.69    0.10
   2  -5   6    0.75    0.14
   2  -5   6    0.51    0.10
   1  -5  -6   97.43    4.05
   5  -4  -6   94.07    4.01
   5  -4  -6   96.80    4.01
   1  -5  -6   92.46    4.04
   1  -5  -6   91.05    4.05
  -5   4  -6   82.23    4.15
  -1   5  -6   93.11    4.05
  -4  -1  -6   88.10    4.11
  -1   5   6   86.74    3.87
  -1   5   6   86.24    3.94
   5  -4   6   86.97    3.77
  -5   4   6   90.15    3.84
   1  -5   6   85.20    3.82
   5  -4   6   85.63    3.77
   1  -5   6   84.09    3.82
  -5   4   6   86.49    3.84
   5  -4   6   89.99    3.85
  -5   4   6   87.23    4.07
   1  -5   6   86.23    3.86
  -4  -1   6   89.65    3.86
   4   1   6   88.75    3.82
   1  -5   6   84.85    3.82
  -1   5   6   83.98    3.81
   0  -5  -6    0.44    0.10
   5  -5  -6    0.65    0.11
   5  -5  -6    0.63    0.11
   0  -5  -6    0.44    0.10
   5  -5  -6    0.68    0.11
  -5   5  -6    0.59    0.18
   0  -5  -6    0.54    0.11
  -5   0  -6    0.56    0.15
   0   5  -6    0.80    0.14
  -5   5   6    0.71    0.20
   5  -5   6    0.69    0.11
   0  -5   6    0.49    0.11
   5  -5   6    0.64    0.11
  -5   5   6    0.70    0.11
   0  -5   6    0.71    0.12
   0  -5   6    0.59    0.12
   0   5   6    0.57    0.13
  -5   0   6    0.66    0.14
   0   5   6    0.61    0.16
  -5   0   6    0.44    0.20
   0  -5   6    0.46    0.11
   5  -5   6    0.61    0.13
   5  -5   6    0.67    0.11
  -5   5   6    0.72    0.14
   0   5   6    0.76    0.13
   1   5  -6    0.60    0.13
   5  -6  -6    0.56    0.11
  -1  -5  -6    0.78    0.14
  -5   6  -6    0.57    0.18
   5  -6  -6    0.55    0.11
  -5   6  -6    0.54    0.17
  -1  -5  -6    0.55    0.11
  -1  -5  -6    0.47    0.11
   1   5  -6    0.52    0.14
   5  -6  -6    0.50    0.10
  -6   1  -6    0.60    0.16
  -5   6  -6    0.58    0.11
   1   5   6    0.39    0.09
  -5   6   6    0.43    0.11
  -6   1   6    0.62    0.13
  -1  -5   6    0.57    0.12
   5  -6   6    0.43    0.12
  -5   6   6    0.55    0.11
   1   5   6    0.34    0.11
   5  -6   6    0.48    0.10
  -1  -5   6    0.53    0.12
  -1  -5   6    0.61    0.13
   5  -6   6    0.57    0.11
  -1  -5   6    0.55    0.12
  -5   6   6    0.51    0.17
  -6   1   6    0.25    0.16
  -2  -4  -6    0.76    0.12
  -6   2  -6    0.61    0.15
   4  -6  -6    0.68    0.12
   4  -6  -6    0.75    0.13
  -2  -4  -6    0.82    0.14
   2   4  -6    0.67    0.13
   2   4  -6    0.81    0.16
  -4   6  -6    0.58    0.19
  -4   6  -6    0.55    0.13
   4  -6  -6    0.47    0.10
  -4   6  -6    0.77    0.13
  -2  -4  -6    0.88    0.13
  -4   6   6    0.67    0.13
  -2  -4   6    0.60    0.11
  -2  -4   6    0.62    0.11
  -4   6   6    0.68    0.19
  -6   2   6    0.69    0.14
   2   4   6    0.45    0.11
   4  -6   6    0.40    0.10
  -4   6   6    0.55    0.11
   4  -6   6    0.70    0.12
   2   4   6    0.60    0.11
  -2  -4   6    0.60    0.14
   4  -6   6    0.67    0.13
   4  -6   6    0.65    0.14
  -4   6   6    0.60    0.12
  -2  -4   6    0.58    0.11
  -6   2   6    0.74    0.26
  -3   6  -6  136.88    6.11
   3  -6  -6  141.76    6.03
  -3   6  -6  137.76    6.04
   3   3  -6  133.35    6.07
   3   3  -6  134.44    6.00
   3  -6  -6  141.77    6.05
  -6   3  -6  138.63    6.12
   3  -6  -6  145.94    6.04
  -3  -3  -6  137.28    6.12
  -6   3   6  121.65    5.59
   3  -6   6  130.95    5.57
  -3   6   6  123.84    5.60
   3  -6   6  128.81    5.58
  -3   6   6  123.47    5.74
   3  -6   6  130.56    5.58
  -3   6   6  128.74    5.57
   3  -6   6  126.21    5.63
   3   3   6  133.56    5.54
  -3   6   6  132.03    5.56
  -3  -3   6  123.67    5.53
   3   3   6  128.80    5.59
  -2   6  -6    0.79    0.14
   2  -6  -6    0.67    0.13
  -4  -2  -6    0.65    0.16
   2  -6  -6    0.86    0.16
  -6   4  -6    0.59    0.16
   2  -6  -6    0.62    0.13
  -2   6  -6    0.63    0.16
  -6   4   6    0.70    0.14
   2  -6   6    0.62    0.13
  -4  -2   6    0.64    0.14
   2  -6   6    0.56    0.14
  -6   4   6    0.58    0.23
  -2   6   6    0.64    0.12
   2  -6   6    0.61    0.12
   6  -4   6    0.57    0.13
  -2   6   6    0.54    0.17
  -2   6   6    0.63    0.14
   2  -6   6    0.58    0.12
  -6   5  -6    0.70    0.19
  -5  -1  -6    0.45    0.14
  -1   6  -6    0.50    0.14
  -1   6  -6    0.50    0.12
   1  -6  -6    0.62    0.14
   1  -6  -6    0.55    0.12
   1  -6  -6    0.43    0.11
  -5  -1   6    0.43    0.21
  -1   6   6    0.56    0.14
   1  -6   6    0.53    0.12
   1  -6   6    0.49    0.12
  -1   6   6    0.43    0.15
  -6   5   6    0.64    0.23
  -6   5   6    0.49    0.12
   1  -6   6    0.50    0.13
  -5  -1   6    0.65    0.14
   1  -6   6    0.42    0.11
   6  -5   6    0.49    0.12
  -1   6   6    0.36    0.10
   0  -6  -6  107.33    4.82
   0  -6  -6  111.99    4.82
   0  -6  -6  107.12    4.82
   0   6  -6  111.51    4.93
   6  -6  -6  111.75    4.79
   0   6  -6  108.15    4.82
   0   6  -6  109.11    4.84
  -6   0  -6  106.93    4.91
   0   6   6  104.06    4.56
   0  -6   6  101.96    4.57
   0   6   6  102.13    4.63
   0   6   6  104.87    4.73
   0  -6   6  103.37    4.57
   0  -6   6  100.57    4.59
  -6   6   6  101.82    4.86
  -6   0   6  106.16    4.60
  -6   6   6  102.78    4.60
   6  -6   6  105.77    4.62
   1   6  -6    0.49    0.13
  -7   1  -6    0.55    0.17
  -1  -6  -6    0.51    0.13
  -1  -6  -6    0.34    0.10
   1   6  -6    0.39    0.12
  -1  -6  -6    0.51    0.12
   1   6  -6    0.49    0.16
   6  -7  -6    0.64    0.13
   6  -7  -6    0.50    0.12
  -1  -6   6    0.46    0.12
   1   6   6    0.60    0.13
  -7   1   6    0.50    0.13
  -6   7   6    0.34    0.17
  -1  -6   6    0.46    0.13
   1   6   6    0.40    0.13
  -6   7   6    0.78    0.17
   6  -7   6    0.53    0.13
  -7   1   6    0.47    0.24
   6  -7   6    0.49    0.14
   6  -7   6    0.43    0.11
  -5   7  -6   60.99    2.72
  -5   7  -6   59.02    2.70
  -2  -5  -6   60.13    2.69
   5  -7  -6   60.62    2.69
  -5   7  -6   59.14    2.99
   5  -7  -6   58.86    2.69
  -5   7  -6   59.26    2.89
   2   5  -6   58.58    2.79
   5  -7  -6   57.79    2.70
   2   5  -6   59.56    2.71
  -2  -5  -6   60.24    2.68
  -7   2  -6   58.30    2.79
   2   5  -6   60.86    2.70
   5  -7   6   56.97    2.56
  -7   2   6   55.95    2.60
   5  -7   6   56.43    2.57
  -5   7   6   55.02    2.55
  -2  -5   6   56.22    2.55
  -5   7   6   56.68    2.60
  -7   2   6   62.38    3.06
   2   5   6   56.10    2.62
   2   5   6   54.09    2.54
  -5   7   6   54.65    2.82
  -2  -5   6   55.66    2.55
   5  -7   6   56.91    2.65
  -4   7  -6    0.53    0.15
  -4   7  -6    0.73    0.16
   3   4  -6    0.55    0.14
  -7   3  -6    0.40    0.14
   4  -7  -6    0.50    0.13
   4  -7  -6    0.52    0.13
   3   4  -6    0.51    0.15
   3   4  -6    0.82    0.14
  -3  -4  -6    0.78    0.20
  -4   7  -6    0.56    0.13
   4  -7  -6    0.55    0.12
   4  -7   6    0.43    0.11
  -4   7   6    0.63    0.13
  -7   3   6    0.45    0.23
   3   4   6    0.43    0.12
   4  -7   6    0.46    0.14
  -7   3   6    0.61    0.14
  -4   7   6    0.44    0.17
   4  -7   6    0.52    0.12
  -4   7   6    0.57    0.14
  -4   7   6    0.57    0.13
  -3   7  -6    0.48    0.13
  -3   7  -6    0.91    0.20
  -4  -3  -6    0.51    0.16
  -7   4  -6    0.63    0.17
   3  -7  -6    0.67    0.14
   3  -7  -6    0.68    0.14
   3  -7  -6    0.77    0.16
  -3   7  -6    0.56    0.13
  -3   7   6    0.62    0.13
  -7   4   6    0.48    0.24
   3  -7   6    0.48    0.11
   3  -7   6    0.44    0.12
  -3   7   6    0.50    0.14
   3  -7   6    0.72    0.17
  -3   7   6    0.49    0.18
  -7   4   6    0.35    0.11
   2  -7  -6   62.13    2.77
   2  -7  -6   62.50    2.79
   2  -7  -6   61.28    2.78
  -5  -2  -6   59.67    2.88
  -2   7  -6   59.65    2.87
  -2   7  -6   58.12    2.78
  -2   7  -6   61.47    2.80
  -7   5   6   50.11    2.90
  -2   7   6   55.01    2.52
  -2   7   6   54.90    2.58
   2  -7   6   56.27    2.59
  -7   5   6   55.17    2.55
   2  -7   6   56.45    2.53
   2  -7   6   55.48    2.53
  -2   7   6   54.45    2.71
  -1   7  -6    0.58    0.17
  -6  -1  -6    0.48    0.16
   1  -7  -6    0.33    0.11
   1  -7  -6    0.61    0.15
  -1   7  -6    0.50    0.13
  -1   7  -6    0.53    0.15
   1  -7  -6    0.44    0.12
  -7   6   6    0.46    0.13
   1  -7   6    0.30    0.10
  -1   7   6    0.51    0.13
   1  -7   6    0.42    0.13
  -6  -1   6    0.48    0.24
   1  -7   6    0.56    0.14
  -1   7   6    0.47    0.17
  -7   6   6    0.53    0.22
  -1   7   6    0.60    0.16
   0   0  -7    0.30    0.11
   0   0  -7    0.10    0.08
   0   0   7   -0.11    0.05
   0   0   7   -0.18    0.04
   0   0   7    0.13    0.07
   0   0   7   -0.18    0.04
  -1   1  -7    9.79    0.61
  -1   0  -7   12.92    0.62
   1   0  -7   13.44    0.64
   0   1  -7   12.08    0.63
   1   0  -7   13.43    0.63
  -1   0  -7   12.99    0.63
   0  -1  -7   13.90    0.65
   0  -1  -7   12.89    0.63
   1  -1  -7   10.21    0.61
   0  -1  -7   12.57    0.62
   0   1  -7   12.44    0.63
  -1   1   7    9.24    0.56
   1   0   7   12.10    0.57
  -1   1   7   10.61    0.59
  -1   0   7   12.89    0.58
   0   1   7   10.92    0.60
  -1   1   7   11.48    0.57
   0   1   7   11.67    0.60
   0  -1   7   11.29    0.57
  -1   0   7   12.73    0.58
  -1   0   7   11.64    0.61
   1   0   7   12.80    0.58
   0  -1   7   10.93    0.60
   1  -1   7    8.76    0.58
   0  -1   7    9.54    0.58
   0  -1   7   10.49    0.56
  -1   1   7   10.27    0.63
  -1   0   7   11.46    0.58
   0   1   7   11.07    0.56
   1   0   7   11.78    0.61
   2  -1  -7   69.73    3.62
   1  -2  -7   81.99    3.61
  -1  -1  -7   80.08    3.63
   2  -1  -7   79.66    3.63
  -1  -1  -7   85.52    3.66
   1  -2  -7   86.28    3.62
   1   1  -7   87.10    3.64
   1  -2  -7   83.32    3.60
   1   1  -7   89.27    3.64
  -1   2  -7   86.06    3.62
   2  -1  -7   84.94    3.61
  -1  -1   7   78.52    3.34
   1   1   7   78.76    3.38
  -2   1   7   75.80    3.36
  -1  -1   7   66.74    3.46
  -2   1   7   76.29    3.35
   1  -2   7   77.39    3.37
   1  -2   7   79.17    3.38
  -1   2   7   79.42    3.37
  -1  -1   7   76.51    3.35
   1  -2   7   74.89    3.34
  -2   1   7   77.35    3.35
  -1   2   7   74.21    3.37
   2  -1   7   72.40    3.38
  -1   2   7   82.02    3.42
  -1  -1   7   77.31    3.37
  -1   2   7   78.22    3.32
  -1  -1   7   77.12    3.38
  -2   1   7   70.28    3.36
  -1   2   7   76.08    3.34
   1   1   7   72.47    3.38
  -2   1   7   82.17    3.39
   1   1   7   78.99    3.34
   1  -2   7   77.58    3.34
  -2   2  -7   11.61    0.56
   0   2  -7   11.29    0.56
   2  -2  -7   11.22    0.56
   0  -2  -7   10.97    0.56
  -2   0  -7   11.44    0.63
  -2   0  -7   11.91    0.58
   0  -2  -7   11.00    0.56
  -2   2  -7   10.85    0.64
  -2   0  -7   10.69    0.56
   0  -2  -7   11.01    0.57
   2  -2  -7   10.81    0.51
   2  -2  -7   11.44    0.57
   2   0   7   10.23    0.53
  -2   2   7   10.06    0.54
   2   0   7   10.43    0.58
   0   2   7   10.56    0.55
   0   2   7   10.41    0.55
   0  -2   7   10.44    0.55
  -2   2   7   10.37    0.63
   0  -2   7   10.30    0.52
   2   0   7   10.37    0.53
  -2   2   7   10.08    0.52
   2  -2   7   10.18    0.56
   0  -2   7    9.98    0.55
   0   2   7    9.68    0.54
  -2   2   7    9.82    0.55
   0  -2   7    9.88    0.51
  -2   2   7   10.61    0.53
  -2   0   7    8.65    0.54
  -2   0   7   10.72    0.56
  -2   0   7   10.82    0.66
   0   2   7   10.26    0.52
   2  -2   7   10.66    0.52
   2  -2   7   10.51    0.52
   2  -2   7   10.03    0.55
  -2   3  -7    9.03    0.48
   2  -3  -7    9.30    0.49
   1   2  -7    9.45    0.49
   2  -3  -7    9.59    0.48
  -1  -2  -7    9.72    0.48
  -1  -2  -7    9.60    0.49
  -3   1  -7    9.01    0.49
   3  -1  -7    9.69    0.50
  -1  -2  -7    9.09    0.51
  -3   1  -7    8.34    0.50
   3  -1  -7    9.38    0.50
   2  -3  -7    9.51    0.48
  -3   1  -7    9.36    0.57
   1   2   7    9.17    0.47
   1   2   7    9.19    0.50
  -2   3   7    8.39    0.49
   2  -3   7    8.55    0.46
   2  -3   7    8.91    0.49
  -1  -2   7    8.69    0.49
  -3   1   7    9.09    0.65
  -2   3   7    8.92    0.50
  -3   1   7    9.31    0.49
   2  -3   7    8.69    0.46
  -2   3   7    8.52    0.46
   3  -1   7    9.73    0.53
  -2   3   7    9.19    0.56
   1   2   7    9.03    0.50
  -3   1   7    9.25    0.51
  -3   1   7    9.54    0.48
  -3   1   7    8.76    0.48
   2  -3   7    8.71    0.50
  -1  -2   7    8.88    0.46
  -2   3   7    8.51    0.47
   3  -1   7    8.97    0.50
  -1  -2   7    9.26    0.50
  -1  -2   7    9.09    0.47
   1  -3  -7    9.13    0.47
   1  -3  -7    9.38    0.48
  -2  -1  -7    9.70    0.48
   3  -2  -7    8.85    0.49
  -2  -1  -7    8.43    0.49
  -1   3  -7    8.66    0.48
  -3   2  -7    7.29    0.56
  -2  -1  -7    9.57    0.53
  -3   2  -7   10.35    0.47
   1  -3  -7    9.51    0.49
   1  -3  -7    9.04    0.48
   2   1  -7    9.97    0.49
   1  -3   7    8.73    0.49
   3  -2   7    9.69    0.45
  -1   3   7    8.82    0.49
  -1   3   7    8.90    0.46
  -3   2   7    9.07    0.48
  -2  -1   7    8.10    0.61
   1  -3   7    8.58    0.46
  -1   3   7    8.55    0.48
   2   1   7    8.70    0.46
  -1   3   7    8.78    0.43
   1  -3   7    8.15    0.45
  -2  -1   7    9.13    0.48
   1  -3   7    8.06    0.45
  -1   3   7    8.67    0.52
   3  -2   7    9.06    0.45
   2   1   7    9.07    0.49
   1  -3   7    9.13    0.50
  -3   2   7    8.36    0.50
  -3   2   7    8.26    0.61
  -3   2   7    8.67    0.47
  -2  -1   7    9.00    0.45
  -3   2   7    7.37    0.46
  -2  -1   7    9.53    0.46
  -2  -1   7    7.81    0.50
   2   1   7    8.84    0.49
   3  -2   7    9.12    0.49
  -2  -1   7    7.95    0.48
   3  -2   7    8.67    0.50
  -3   3  -7    0.16    0.09
   3   0  -7    0.57    0.10
   3  -3  -7    0.06    0.04
  -3   0  -7    0.17    0.06
   0  -3  -7    0.17    0.06
   3  -3  -7    0.06    0.04
  -3   3  -7    0.12    0.04
   0  -3  -7    0.08    0.04
  -3   0  -7    0.08    0.06
  -3   0  -7    0.16    0.06
   0  -3  -7    0.06    0.04
   3   0  -7    0.39    0.08
   0   3  -7    0.12    0.05
   0  -3  -7    0.28    0.08
  -3   3   7    0.41    0.09
  -3   0   7    0.03    0.03
   3  -3   7    0.21    0.05
   0   3   7    0.11    0.05
   3  -3   7    0.06    0.03
   0   3   7    0.07    0.05
  -3   0   7    0.12    0.06
  -3   3   7    0.05    0.04
   3   0   7    0.41    0.10
   3   0   7    0.07    0.05
  -3   0   7    0.37    0.14
   0  -3   7    0.13    0.05
  -3   3   7    0.06    0.06
  -3   0   7    0.04    0.04
   3   0   7    0.04    0.03
   0   3   7    0.16    0.06
  -3   0   7    0.07    0.04
   0   3   7    0.04    0.04
  -3   3   7    0.03    0.03
   0  -3   7    0.05    0.04
  -3   3   7    0.16    0.05
   3  -3   7    0.06    0.04
   3   0   7    0.26    0.06
   0  -3   7    0.10    0.04
   3  -3   7    0.24    0.06
   3  -3   7    0.07    0.05
  -4   1  -7    7.70    0.49
  -1  -3  -7    7.23    0.44
  -3   4  -7    7.20    0.40
  -1  -3  -7    7.08    0.40
  -1  -3  -7    7.39    0.40
  -3   4  -7    6.84    0.52
   3  -4  -7    7.37    0.40
   4  -1  -7    5.70    0.39
   3  -4  -7    7.45    0.41
   3  -4  -7    7.67    0.40
  -1  -3  -7    7.10    0.41
   1   3  -7    7.15    0.40
  -1  -3   7    6.51    0.38
  -3   4   7    7.16    0.41
  -4   1   7    5.99    0.37
  -4   1   7    7.94    0.61
   1   3   7    6.40    0.40
  -1  -3   7    6.65    0.38
   4  -1   7    6.32    0.36
   1   3   7    6.70    0.41
   4  -1   7    6.77    0.41
  -1  -3   7    6.96    0.41
  -1  -3   7    6.48    0.38
  -3   4   7    6.90    0.50
   1   3   7    6.81    0.38
   3  -4   7    6.84    0.42
  -3   4   7    6.74    0.42
   4  -1   7    7.65    0.44
   4  -1   7    5.87    0.36
   3  -4   7    6.85    0.38
  -3   4   7    6.56    0.39
  -3   4   7    6.89    0.38
  -4   1   7    7.27    0.39
   3  -4   7    6.42    0.38
  -4   1   7    7.27    0.43
   3  -4   7    6.89    0.38
   2  -4  -7   58.67    2.59
  -2  -2  -7   60.73    2.58
  -2  -2  -7   61.47    2.60
   4  -2  -7   55.13    2.60
  -2  -2  -7   59.63    2.66
  -4   2  -7   57.82    2.72
   2  -4  -7   55.20    2.59
   2  -4  -7   58.93    2.60
  -2   4  -7   55.76    2.59
   2   2  -7   59.05    2.59
   4  -2  -7   62.04    2.60
  -2   4   7   53.19    2.47
  -4   2   7   50.27    2.45
   4  -2   7   58.95    2.45
  -2  -2   7   54.14    2.41
   2  -4   7   51.72    2.42
   4  -2   7   55.98    2.40
  -2   4   7   54.47    2.46
  -2   4   7   52.22    2.42
  -2   4   7   56.46    2.56
  -2  -2   7   55.95    2.42
  -4   2   7   59.57    2.44
   4  -2   7   56.07    2.39
   2  -4   7   53.00    2.43
   2  -4   7   50.85    2.42
  -2   4   7   53.74    2.41
  -4   2   7   54.71    2.46
   2  -4   7   53.20    2.47
  -2  -2   7   51.98    2.41
  -2  -2   7   55.55    2.51
   2   2   7   56.39    2.46
   2   2   7   55.12    2.45
  -4   2   7   54.93    2.43
  -4   2   7   60.44    2.43
  -2  -2   7   52.90    2.46
   2   2   7   56.13    2.42
   1  -4  -7    7.17    0.41
   4  -3  -7    7.46    0.41
  -4   3  -7    6.72    0.38
  -1   4  -7    7.15    0.41
   4  -3  -7    7.81    0.42
   3   1  -7    7.38    0.40
  -3  -1  -7    7.22    0.47
   1  -4  -7    7.19    0.41
   1  -4  -7    7.14    0.41
   1  -4  -7    7.19    0.41
  -3  -1   7    6.70    0.35
   4  -3   7    6.45    0.36
  -1   4   7    6.64    0.38
  -1   4   7    6.61    0.45
   3   1   7    6.86    0.39
  -3  -1   7    6.67    0.58
   3   1   7    6.93    0.41
   3   1   7    5.87    0.38
   4  -3   7    6.64    0.36
   4  -3   7    6.74    0.35
  -4   3   7    6.71    0.39
   1  -4   7    6.90    0.42
  -3  -1   7    6.48    0.36
  -4   3   7    6.86    0.55
   4  -3   7    6.98    0.42
   1  -4   7    6.39    0.38
   1  -4   7    6.96    0.39
  -1   4   7    6.87    0.42
  -4   3   7    6.34    0.39
   3   1   7    6.64    0.38
   1  -4   7    6.53    0.38
  -4   3   7    6.59    0.39
  -1   4   7    6.51    0.41
   4  -3   7    6.56    0.38
   0   4  -7    6.98    0.40
   0  -4  -7    6.39    0.39
   0  -4  -7    6.14    0.39
  -4   0  -7    6.59    0.45
   4  -4  -7    7.11    0.39
   0  -4  -7    6.54    0.41
  -4   4  -7    7.07    0.51
   4  -4  -7    6.71    0.39
  -4   4  -7    6.44    0.37
   0  -4  -7    6.63    0.39
  -4   0   7    6.10    0.43
  -4   0   7    6.83    0.43
   0  -4   7    5.78    0.39
   4  -4   7    6.47    0.41
   0  -4   7    6.26    0.37
   4  -4   7    5.97    0.35
   4  -4   7    5.85    0.35
  -4   4   7    6.92    0.40
   0   4   7    5.89    0.36
  -4   4   7    5.98    0.38
  -4   0   7    6.51    0.38
   4   0   7    6.52    0.38
   0  -4   7    5.94    0.37
   0  -4   7    6.09    0.37
  -4   4   7    6.09    0.39
   0   4   7    5.88    0.40
   4  -4   7    6.34    0.35
  -4   4   7    6.29    0.51
   0   4   7    6.12    0.43
  -4   0   7    7.17    0.60
  -4   4   7    6.30    0.37
   0   4   7    6.05    0.40
  -1  -4  -7   44.11    2.04
   4  -5  -7   44.28    2.03
  -1  -4  -7   45.90    2.10
   4  -5  -7   44.22    2.02
   4  -5  -7   44.76    2.03
  -1  -4  -7   43.78    2.02
  -4   5  -7   47.72    2.23
  -4   5  -7   44.55    2.03
   1   4  -7   43.85    2.04
  -1  -4  -7   45.02    2.04
  -5   1  -7   45.94    2.14
   1   4   7   41.20    1.95
  -1  -4   7   42.42    1.92
  -4   5   7   42.01    1.93
   1   4   7   40.44    1.90
   1   4   7   40.55    1.96
  -1  -4   7   41.26    1.92
   4  -5   7   42.20    1.91
  -4   5   7   41.21    1.94
  -1  -4   7   43.60    1.95
  -5   1   7   47.91    2.29
  -5   1   7   43.33    1.97
  -4   5   7   43.08    2.12
   4  -5   7   41.79    1.97
   4  -5   7   41.16    1.90
  -1  -4   7   40.20    1.92
  -4   5   7   42.51    1.91
   4  -5   7   41.95    1.91
   3  -5  -7    5.45    0.34
  -5   2  -7    5.38    0.42
  -2  -3  -7    5.21    0.33
   2   3  -7    5.13    0.33
   3  -5  -7    5.03    0.34
  -2  -3  -7    5.74    0.34
   3  -5  -7    5.55    0.34
  -3   5  -7    4.97    0.34
  -2  -3  -7    5.30    0.32
  -2  -3  -7    5.52    0.39
   3  -5   7    4.86    0.35
   2   3   7    4.64    0.32
  -3   5   7    4.61    0.31
   5  -2   7    5.38    0.36
   2   3   7    4.92    0.31
  -2  -3   7    4.46    0.30
  -5   2   7    4.85    0.51
  -5   2   7    5.11    0.35
  -2  -3   7    5.12    0.31
  -2  -3   7    5.40    0.38
  -2  -3   7    4.78    0.30
  -3   5   7    5.10    0.42
  -3   5   7    4.92    0.32
   3  -5   7    4.92    0.32
   2   3   7    4.77    0.34
   3  -5   7    4.63    0.31
   3  -5   7    4.85    0.32
  -3   5   7    5.05    0.36
  -3   5   7    4.93    0.34
   3   2  -7    5.07    0.32
  -3  -2  -7    5.80    0.41
  -2   5  -7    5.51    0.35
   2  -5  -7    5.50    0.35
   2  -5  -7    5.44    0.35
  -5   3  -7    5.14    0.43
   5  -3   7    4.90    0.35
   2  -5   7    4.81    0.31
  -5   3   7    4.95    0.34
  -3  -2   7    3.71    0.46
  -3  -2   7    4.78    0.29
  -2   5   7    4.89    0.40
   2  -5   7    4.95    0.32
  -2   5   7    4.68    0.31
   2  -5   7    4.75    0.35
  -3  -2   7    4.71    0.28
   3   2   7    5.34    0.30
  -5   3   7    3.48    0.45
   3   2   7    4.94    0.31
   3   2   7    4.97    0.33
  -2   5   7    4.58    0.34
   2  -5   7    4.91    0.32
  -3  -2   7    4.72    0.28
  -2   5   7    4.64    0.35
   1  -5  -7   46.28    2.08
  -4  -1  -7   44.45    2.14
   1  -5  -7   45.70    2.07
   5  -4  -7   44.73    2.04
   1  -5  -7   45.59    2.06
   5  -4  -7   46.01    2.05
  -1   5  -7   43.87    2.06
  -5   4   7   43.88    2.19
  -1   5   7   40.67    2.01
   1  -5   7   40.98    1.91
   1  -5   7   40.25    1.94
   1  -5   7   40.29    1.90
  -1   5   7   41.36    1.95
   5  -4   7   40.83    1.86
  -1   5   7   41.89    1.90
   5  -4   7   44.29    1.95
   1  -5   7   40.16    1.90
   4   1   7   42.66    1.92
  -1   5   7   42.26    1.96
  -5   4   7   41.98    1.91
   5  -4   7   39.95    1.85
  -4  -1   7   42.31    1.97
   0  -5  -7    4.45    0.31
  -5   5  -7    4.38    0.41
   0  -5  -7    3.99    0.30
   0  -5  -7    4.38    0.31
  -5   0  -7    4.18    0.36
   5  -5  -7    4.45    0.29
   0   5  -7    3.82    0.30
   5  -5  -7    4.22    0.29
   0  -5   7    3.61    0.29
  -5   0   7    4.37    0.33
   0   5   7    4.14    0.33
   0   5   7    4.17    0.36
   0   5   7    3.94    0.32
   5  -5   7    3.83    0.26
   5  -5   7    3.77    0.27
   0  -5   7    3.73    0.30
  -5   5   7    4.52    0.45
   0   5   7    3.87    0.28
  -5   5   7    3.70    0.30
  -5   0   7    4.12    0.49
  -5   5   7    3.95    0.27
   0  -5   7    3.80    0.29
   0  -5   7    3.70    0.28
   5  -5   7    4.01    0.26
   5  -5   7    4.14    0.32
   5  -6  -7    3.98    0.29
  -5   6  -7    3.87    0.39
   1   5  -7    3.76    0.34
  -6   1  -7    3.67    0.35
   1   5  -7    3.60    0.29
  -1  -5  -7    3.89    0.29
  -1  -5  -7    4.27    0.30
   5  -6  -7    3.48    0.27
  -1  -5  -7    3.92    0.29
   5  -6  -7    3.94    0.28
  -5   6  -7    3.79    0.28
   5  -6   7    3.53    0.27
  -6   1   7    4.30    0.33
   1   5   7    3.84    0.32
   5  -6   7    3.66    0.27
  -5   6   7    3.63    0.27
   5  -6   7    3.86    0.28
  -1  -5   7    3.56    0.28
  -5   6   7    3.13    0.39
  -1  -5   7    3.47    0.28
  -5   6   7    4.03    0.31
  -1  -5   7    3.42    0.29
   1   5   7    3.63    0.27
   5  -6   7    3.58    0.32
  -1  -5   7    3.31    0.28
  -6   1   7    3.87    0.49
  -4   6  -7    4.07    0.43
  -4   6  -7    4.27    0.31
   4  -6  -7    4.18    0.30
  -2  -4  -7    4.32    0.31
   4  -6  -7    4.45    0.32
  -6   2  -7    4.41    0.38
  -2  -4  -7    4.42    0.37
  -2  -4  -7    4.43    0.30
  -2  -4  -7    4.49    0.30
   4  -6  -7    4.39    0.31
   2   4  -7    4.43    0.31
  -4   6   7    3.84    0.40
   4  -6   7    4.09    0.34
   2   4   7    3.91    0.31
  -2  -4   7    4.08    0.34
  -4   6   7    3.86    0.30
   4  -6   7    4.34    0.31
  -2  -4   7    4.01    0.29
  -6   2   7    4.31    0.33
  -6   2   7    4.34    0.50
   4  -6   7    4.22    0.30
  -4   6   7    3.82    0.31
   4  -6   7    4.08    0.29
  -2  -4   7    4.32    0.29
  -4   6   7    3.77    0.28
   2   4   7    4.05    0.32
  -2  -4   7    4.12    0.29
   2   4   7    3.82    0.28
   3  -6  -7    0.03    0.06
  -3  -3  -7    0.21    0.10
  -6   3  -7    0.22    0.11
  -3   6  -7    0.13    0.08
   3   3  -7    0.07    0.06
   3  -6  -7    0.02    0.06
   3  -6  -7   -0.03    0.05
  -3   6   7    0.07    0.07
  -3   6   7    0.01    0.04
  -6   3   7    0.12    0.12
  -3   6   7    0.08    0.05
   3   3   7    0.37    0.11
   3  -6   7    0.02    0.06
  -6   3   7    0.52    0.12
   3   3   7    0.19    0.07
  -3   6   7    0.08    0.06
   3  -6   7    0.34    0.10
   3  -6   7    0.01    0.05
  -3  -3   7    0.06    0.06
   3  -6   7    0.06    0.07
  -3  -3   7    0.14    0.06
  -4  -2  -7    4.08    0.38
  -2   6  -7    4.82    0.34
   2  -6  -7    4.59    0.34
   2  -6  -7    4.44    0.34
   2  -6  -7    4.56    0.33
  -6   4  -7    4.82    0.42
   2  -6   7    4.08    0.31
  -6   4   7    3.83    0.31
   6  -4   7    4.36    0.33
  -2   6   7    3.79    0.33
   2  -6   7    3.81    0.33
  -4  -2   7    3.67    0.33
  -2   6   7    4.29    0.31
  -2   6   7    4.14    0.39
   2  -6   7    4.05    0.30
  -6   4   7    3.32    0.46
   2  -6   7    4.18    0.30
  -1   6  -7    3.62    0.30
   1  -6  -7    3.70    0.30
  -5  -1  -7    3.60    0.35
  -1   6  -7    3.88    0.35
   1  -6  -7    4.20    0.32
   1  -6  -7    3.98    0.31
  -6   5  -7    3.02    0.35
   6  -5   7    3.99    0.32
   1  -6   7    3.81    0.33
  -1   6   7    3.81    0.29
   1  -6   7    3.46    0.29
  -5  -1   7    4.19    0.34
   1  -6   7    3.26    0.28
  -1   6   7    3.65    0.37
  -1   6   7    3.69    0.33
  -6   5   7    3.31    0.44
  -6   5   7    3.80    0.31
   1  -6   7    3.71    0.30
   0  -6  -7    0.09    0.07
  -6   0  -7    0.25    0.11
   0  -6  -7    0.49    0.13
   0   6  -7    0.02    0.07
   0  -6  -7    0.54    0.13
  -6   6  -7    0.14    0.11
   0   6  -7   -0.02    0.07
   6  -6  -7    0.09    0.07
  -6   0   7    0.10    0.14
   0   6   7    0.12    0.09
   0   6   7    0.05    0.08
   0  -6   7   -0.07    0.05
   0  -6   7    0.04    0.07
  -6   6   7    0.12    0.11
   0   6   7    0.11    0.08
   6  -6   7    0.11    0.08
   0  -6   7    0.09    0.07
  -6   0   7    0.22    0.10
   0  -6   7    0.11    0.08
  -6   6   7    0.01    0.06
  -7   2  -7   27.89    1.45
   5  -7  -7   26.94    1.32
  -2  -5  -7   27.02    1.31
  -5   7  -7   29.32    1.53
  -5   7  -7   28.65    1.36
   2   5  -7   26.13    1.33
  -5   7  -7   25.45    1.57
  -5   7  -7   27.73    1.34
  -2  -5  -7   26.83    1.33
   2   5  -7   27.28    1.42
   5  -7  -7   27.07    1.33
   5  -7  -7   27.86    1.35
  -2  -5   7   26.24    1.26
   5  -7   7   25.71    1.27
  -2  -5   7   23.88    1.32
  -5   7   7   24.29    1.25
  -2  -5   7   26.53    1.26
  -7   2   7   28.59    1.69
   5  -7   7   25.81    1.35
   2   5   7   25.55    1.32
   5  -7   7   24.58    1.26
  -7   2   7   25.62    1.32
  -5   7   7   25.72    1.51
  -5   7   7   26.62    1.31
   2   5   7   26.25    1.26
   4  -7  -7    3.69    0.31
  -4   7  -7    3.91    0.31
  -7   3  -7    3.69    0.36
   3   4  -7    3.68    0.28
   3   4  -7    3.84    0.34
   4  -7  -7    3.64    0.30
  -3  -4  -7    3.50    0.36
   4  -7  -7    3.70    0.30
  -4   7  -7    3.72    0.35
  -7   3   7    3.65    0.31
   4  -7   7    3.86    0.30
  -4   7   7    3.71    0.30
  -7   3   7    3.61    0.50
  -4   7   7    3.47    0.40
  -3  -4   7    2.35    0.28
  -4   7   7    3.44    0.31
   3   4   7    3.38    0.30
   4  -7   7    3.36    0.32
  -4   7   7    3.40    0.28
   4  -7   7    3.42    0.29
   3  -7  -7    4.15    0.33
  -4  -3  -7    3.80    0.38
  -3   7  -7    3.83    0.37
   3  -7  -7    4.33    0.33
   3  -7  -7    3.95    0.33
  -7   4  -7    4.32    0.39
  -3   7  -7    3.78    0.32
   3  -7   7    3.55    0.29
  -7   4   7    2.69    0.53
  -3   7   7    3.30    0.39
  -7   4   7    3.39    0.31
   3  -7   7    3.27    0.29
  -3   7   7    3.46    0.29
  -3   7   7    3.63    0.32
  -4  -3   7    3.09    0.31
   3  -7   7    3.56    0.34
  -2   7  -7   27.36    1.40
   2  -7  -7   28.26    1.40
   2  -7  -7   27.72    1.39
  -7   5  -7   29.71    1.50
   2  -7  -7   28.69    1.39
  -5  -2  -7   27.40    1.48
  -2   7  -7   26.88    1.46
  -2   7  -7   26.87    1.38
  -7   5   7   20.84    1.57
  -2   7   7   25.65    1.32
   2  -7   7   25.89    1.33
  -2   7   7   24.80    1.42
   2  -7   7   25.46    1.27
   2  -7   7   24.27    1.26
  -2   7   7   26.98    1.27
  -5  -2   7   27.49    1.32
  -7   5   7   24.76    1.29
   0   0  -8  961.44   40.58
   0   0  -8  913.73   40.49
   0   0  -8  969.53   40.50
   0   0   8  894.35   37.29
   0   0   8  845.91   37.18
   0   0   8  861.66   37.19
   0   0   8  843.39   37.21
   0   0   8  889.85   37.34
   0   0   8  884.81   37.30
   0   1  -8    0.70    0.12
  -1   0  -8    0.93    0.17
   1   0  -8    1.53    0.14
   0  -1  -8    1.16    0.13
  -1   1  -8    1.21    0.15
  -1   1  -8    0.94    0.15
  -1   0  -8    1.48    0.13
   1  -1  -8    1.21    0.16
   1   0  -8    1.61    0.14
   1  -1  -8    1.20    0.13
  -1   1  -8    0.88    0.13
   1   0  -8    1.06    0.13
   0  -1  -8    1.06    0.15
   0  -1  -8    0.95    0.13
   0   1  -8    0.72    0.13
  -1   0  -8    1.49    0.14
   1  -1  -8    0.70    0.12
   0   1   8    0.68    0.13
   0  -1   8    0.75    0.14
   1   0   8    1.31    0.12
   1  -1   8    0.71    0.11
   0   1   8    1.24    0.17
  -1   0   8    1.32    0.12
   0  -1   8    1.08    0.15
  -1   0   8    1.42    0.15
  -1   1   8    1.01    0.14
   0  -1   8    0.61    0.11
   1  -1   8    0.77    0.14
  -1   1   8    0.92    0.15
   0   1   8    1.16    0.15
   0  -1   8    0.70    0.12
  -1   0   8    1.44    0.13
   1  -1   8    1.08    0.12
   0   1   8    0.85    0.12
  -1   1   8    0.77    0.16
   1   0   8    1.24    0.14
   0  -1   8    0.73    0.14
  -1   1   8    0.82    0.13
   0   1   8    1.20    0.14
   1  -1   8    1.17    0.14
   0   1   8    0.79    0.11
  -1   1   8    0.95    0.16
  -1   0   8    1.29    0.14
  -1   1   8    0.82    0.12
   2  -1  -8  183.92    7.78
   1   1  -8  161.09    7.78
   1  -2  -8  186.95    7.76
   2  -1  -8  191.59    7.76
  -2   1  -8  170.52    7.86
   2  -1  -8  176.93    7.78
  -1  -1  -8  161.94    7.76
  -1  -1  -8  192.53    7.83
   1  -2  -8  189.22    7.77
  -1   2  -8  193.52    7.78
   1   1  -8  166.61    7.78
   1  -2  -8  192.54    7.78
  -1  -1   8  163.94    7.27
   2  -1   8  177.60    7.32
   1   1   8  165.78    7.29
  -2   1   8  176.73    7.31
  -2   1   8  150.17    7.29
   1  -2   8  176.51    7.32
  -1  -1   8  168.69    7.32
  -1   2   8  174.30    7.25
  -1  -1   8  170.72    7.29
   2  -1   8  148.94    7.26
  -1   2   8  172.24    7.31
   1  -2   8  179.96    7.28
  -1   2   8  180.85    7.28
   1   1   8  167.03    7.31
  -2   1   8  170.11    7.26
   2  -1   8  144.45    7.26
  -1   2   8  185.41    7.37
  -1   2   8  172.11    7.31
   1  -2   8  177.14    7.27
  -1  -1   8  171.41    7.43
  -2   1   8  177.95    7.28
   1  -2   8  178.74    7.32
   1   1   8  157.32    7.27
   2  -1   8  142.88    7.30
  -2   2  -8    1.46    0.14
   2  -2  -8    1.48    0.11
   2   0  -8    1.31    0.17
  -2   0  -8    1.45    0.22
   2   0  -8    1.06    0.16
   0  -2  -8    1.59    0.14
   2  -2  -8    1.46    0.14
   0   2  -8    1.49    0.14
  -2   2  -8    1.31    0.17
   0  -2  -8    1.38    0.14
   2  -2  -8    1.29    0.14
  -2   0  -8    1.32    0.13
  -2   0  -8    1.48    0.14
   0  -2  -8    1.35    0.14
   2  -2   8    1.24    0.15
  -2   0   8    0.74    0.12
   2  -2   8    1.27    0.13
  -2   2   8    1.21    0.13
   0   2   8    1.31    0.13
  -2   0   8    1.55    0.21
   2  -2   8    1.07    0.14
   0  -2   8    1.35    0.15
   2   0   8    1.31    0.13
   2   0   8    1.60    0.17
   0   2   8    1.28    0.14
  -2   2   8    1.38    0.19
  -2   2   8    1.08    0.17
   0  -2   8    1.31    0.15
   0  -2   8    1.22    0.12
  -2   0   8    1.08    0.15
   2   0   8    1.32    0.13
  -2   0   8    1.30    0.15
   0   2   8    1.30    0.15
   0   2   8    1.26    0.15
   2   0   8    1.24    0.15
  -2   2   8    1.35    0.13
  -2   2   8    1.31    0.15
   2  -2   8    1.30    0.13
  -2   0   8    0.92    0.16
   0  -2   8    1.41    0.14
  -1  -2  -8    0.96    0.13
   3  -1  -8    1.38    0.14
   1   2  -8    1.33    0.13
  -3   1  -8    1.05    0.20
   2  -3  -8    1.22    0.12
  -3   1  -8    0.74    0.12
  -2   3  -8    0.96    0.20
   3  -1  -8    1.23    0.16
  -1  -2  -8    1.02    0.14
   2  -3  -8    1.12    0.12
  -2   3  -8    0.90    0.13
  -1  -2  -8    1.07    0.14
  -3   1  -8    0.80    0.13
  -1  -2   8    1.09    0.17
   2  -3   8    1.03    0.16
   2  -3   8    1.20    0.12
  -3   1   8    0.95    0.15
  -3   1   8    1.19    0.13
  -3   1   8    1.10    0.24
  -2   3   8    1.19    0.17
   3  -1   8    1.01    0.14
   3  -1   8    1.15    0.15
   3  -1   8    0.96    0.13
  -3   1   8    1.02    0.13
   1   2   8    0.90    0.13
   2  -3   8    1.00    0.11
  -3   1   8    1.20    0.12
   1   2   8    1.02    0.13
   1   2   8    1.01    0.13
   3  -1   8    1.14    0.14
  -3   1   8    0.61    0.12
   2  -3   8    1.00    0.13
  -1  -2   8    1.19    0.12
  -1  -2   8    0.83    0.13
  -2   3   8    1.09    0.12
  -1  -2   8    1.12    0.12
  -2   3   8    1.05    0.16
  -2   3   8    1.16    0.12
  -2   3   8    1.09    0.14
   2   1  -8    1.28    0.13
   3  -2  -8    0.86    0.14
  -2  -1  -8    0.88    0.14
   1  -3  -8    1.14    0.11
   1  -3  -8    1.06    0.11
  -2  -1  -8    1.21    0.15
  -3   2  -8    1.12    0.12
  -2  -1  -8    1.26    0.16
  -3   2  -8    0.88    0.19
   3  -2  -8    0.62    0.12
  -1   3  -8    1.12    0.14
   1  -3  -8    1.14    0.15
   3  -2   8    0.82    0.15
  -3   2   8    0.97    0.15
  -1   3   8    1.07    0.13
  -1   3   8    0.85    0.09
  -2  -1   8    1.06    0.13
  -2  -1   8    1.11    0.12
   2   1   8    1.01    0.15
  -2  -1   8    0.97    0.13
  -3   2   8    0.89    0.14
  -3   2   8    0.67    0.18
   1  -3   8    1.09    0.12
   3  -2   8    1.20    0.12
  -2  -1   8    0.89    0.21
   1  -3   8    0.84    0.14
   3  -2   8    1.02    0.11
   2   1   8    0.94    0.14
   2   1   8    0.77    0.13
   2   1   8    0.85    0.15
  -2  -1   8    1.06    0.11
  -3   2   8    0.50    0.11
  -1   3   8    0.78    0.11
  -3   2   8    1.06    0.13
  -3   2   8    0.95    0.14
  -1   3   8    0.98    0.15
   1  -3   8    0.98    0.13
   1  -3   8    0.81    0.13
  -2  -1   8    0.91    0.16
   3  -2   8    1.09    0.14
  -1   3   8    0.98    0.14
  -3   0  -8  688.16   28.41
  -3   3  -8  671.93   28.34
  -3   0  -8  692.84   28.32
   3  -3  -8  659.11   28.30
   0  -3  -8  669.33   28.36
   3  -3  -8  669.10   28.32
   0  -3  -8  657.24   28.35
   3   0  -8  571.36   28.26
  -3   3  -8  694.66   28.60
   0  -3  -8  657.29   28.36
  -3   0  -8  686.78   28.27
   0   3  -8  649.19   28.33
  -3   3   8  580.13   26.73
  -3   3   8  629.07   26.70
   0  -3   8  611.37   26.65
   3  -3   8  637.59   26.69
  -3   3   8  651.73   26.72
   3  -3   8  647.36   26.60
   0   3   8  602.89   26.71
   0  -3   8  635.19   26.71
   3  -3   8  641.41   26.68
   0  -3   8  607.63   26.68
   3   0   8  599.07   26.63
   0  -3   8  605.98   26.68
   0   3   8  624.26   26.80
  -3   3   8  595.49   26.73
  -3   0   8  634.83   27.12
  -3   0   8  616.85   26.63
   0   3   8  626.48   26.66
   3   0   8  608.25   26.67
   3  -3   8  661.99   26.82
  -3   3   8  651.61   27.04
  -3   0   8  607.82   26.70
   0  -3   8  617.67   26.71
   0   3   8  616.29   26.71
  -3   0   8  646.89   26.67
   3  -4  -8    0.72    0.11
   1   3  -8    0.68    0.12
   4  -1  -8    0.42    0.10
  -3   4  -8    0.40    0.14
  -1  -3  -8    0.54    0.11
  -3   4  -8    0.68    0.11
   4  -1  -8    0.56    0.11
  -1  -3  -8    0.73    0.11
   3  -4  -8    0.52    0.10
  -1  -3  -8    0.78    0.15
  -4   1  -8    0.76    0.18
   3  -4   8    0.64    0.11
  -1  -3   8    0.56    0.10
  -1  -3   8    0.68    0.13
   4  -1   8    0.66    0.12
   3  -4   8    0.66    0.11
  -3   4   8    0.60    0.12
   3  -4   8    0.49    0.09
  -1  -3   8    0.71    0.11
   1   3   8    0.73    0.11
  -1  -3   8    0.74    0.12
   4  -1   8    0.46    0.09
  -4   1   8    0.50    0.17
  -3   4   8    0.54    0.12
  -4   1   8    0.43    0.09
   1   3   8    0.63    0.12
  -4   1   8    0.56    0.12
  -3   4   8    0.53    0.10
   4  -1   8    0.71    0.14
   1   3   8    0.47    0.11
   4  -1   8    0.52    0.09
  -3   4   8    0.81    0.19
  -4   1   8    0.54    0.11
  -3   4   8    0.79    0.12
   3  -4   8    0.77    0.14
  -4   2  -8  101.28    5.36
   2  -4  -8  119.26    5.24
   2  -4  -8  117.40    5.24
   2  -4  -8  120.81    5.25
  -2  -2  -8  124.45    5.32
   4  -2  -8  125.33    5.25
   2   2  -8  125.28    5.25
   4  -2  -8  120.39    5.25
  -2   4  -8  118.52    5.25
  -2  -2  -8  126.50    5.26
  -2  -2  -8  129.10    5.24
  -2  -2   8  115.04    4.99
   4  -2   8  113.01    5.03
   2  -4   8  111.35    5.00
  -2   4   8  107.59    5.05
   2  -4   8  110.04    5.00
  -2  -2   8  117.00    5.08
   4  -2   8  116.82    4.99
   4  -2   8  118.16    4.98
  -4   2   8  119.39    5.02
  -4   2   8  116.19    5.04
  -2  -2   8  109.72    5.00
   2  -4   8  114.06    5.00
   2  -4   8  112.31    5.05
  -2   4   8  115.08    5.13
   2   2   8  116.96    5.04
   2   2   8  124.28    5.01
  -2   4   8  112.85    4.98
   2   2   8  118.23    5.05
  -2   4   8  105.47    4.99
  -4   2   8  115.81    5.05
  -4   2   8  123.14    5.00
  -2   4   8  111.38    5.04
  -4   2   8  125.57    5.01
  -3  -1  -8    0.53    0.11
   1  -4  -8    0.64    0.11
   1  -4  -8    0.81    0.13
  -1   4  -8    0.59    0.11
   3   1  -8    0.73    0.12
  -4   3  -8    0.80    0.11
  -3  -1  -8    0.49    0.11
  -4   3  -8    0.73    0.18
   1  -4  -8    0.52    0.10
   4  -3  -8    0.95    0.15
  -3  -1  -8    0.72    0.15
   1  -4  -8    0.64    0.11
   4  -3  -8    0.58    0.11
  -4   3   8    0.50    0.11
  -1   4   8    0.66    0.13
  -4   3   8    0.47    0.17
   3   1   8    0.67    0.13
  -4   3   8    0.56    0.11
  -4   3   8    0.57    0.12
   4  -3   8    0.62    0.11
  -4   3   8    0.61    0.12
   1  -4   8    0.94    0.14
  -3  -1   8    0.61    0.10
   4  -3   8    0.75    0.11
   3   1   8    0.44    0.09
  -3  -1   8    0.50    0.10
  -3  -1   8    0.48    0.13
  -3  -1   8    0.69    0.10
  -1   4   8    0.49    0.10
  -3  -1   8    0.64    0.20
   3   1   8    0.30    0.08
   4  -3   8    0.73    0.10
  -4   3   8    0.76    0.13
   1  -4   8    0.55    0.12
   4  -3   8    0.61    0.13
   4  -3   8    0.64    0.10
   3   1   8    0.68    0.13
   1  -4   8    0.65    0.11
   1  -4   8    0.55    0.10
  -1   4   8    0.52    0.13
  -1   4   8    0.56    0.12
  -4   0  -8    0.52    0.14
   4  -4  -8    0.65    0.12
   0  -4  -8    0.57    0.12
   0   4  -8    0.63    0.12
   0  -4  -8    0.63    0.11
  -4   4  -8    0.45    0.09
   4   0  -8    0.57    0.10
   0  -4  -8    0.43    0.10
   4  -4  -8    0.53    0.11
   0  -4  -8    0.48    0.10
  -4   4  -8    0.78    0.20
   0  -4   8    0.51    0.10
   0   4   8    0.37    0.09
  -4   4   8    0.52    0.12
   0  -4   8    0.37    0.09
   4  -4   8    0.60    0.11
   0   4   8    0.43    0.11
   4  -4   8    0.43    0.09
   4   0   8    0.43    0.11
   0  -4   8    0.63    0.12
   0   4   8    0.60    0.13
   0  -4   8    0.58    0.12
  -4   0   8    0.44    0.17
  -4   4   8    0.61    0.13
  -4   4   8    0.67    0.19
  -4   0   8    0.41    0.08
   4  -4   8    0.48    0.12
  -4   0   8    0.54    0.11
  -4   4   8    0.46    0.11
   4   0   8    0.54    0.12
   4   0   8    0.58    0.12
  -4   4   8    0.53    0.11
   4  -4   8    0.49    0.09
   0   4   8    0.56    0.13
  -1  -4  -8   88.48    4.03
  -5   1  -8   94.56    4.19
   1   4  -8   90.31    4.05
  -1  -4  -8   92.70    4.12
  -4   5  -8   95.99    4.24
  -1  -4  -8   91.52    4.05
   4  -5  -8   91.29    4.04
   4  -5  -8   90.23    4.05
  -4   5  -8   93.72    4.04
  -1  -4  -8   92.01    4.05
   4  -5   8   82.48    3.78
   1   4   8   82.36    3.83
  -5   1   8   89.43    3.87
  -4   5   8   87.92    3.79
  -4   5   8   87.12    3.81
   1   4   8   82.87    3.83
  -1  -4   8   85.64    3.80
  -1  -4   8   88.10    3.84
   1   4   8   83.62    3.78
   4  -5   8   85.58    3.78
  -1  -4   8   87.46    3.80
  -5   1   8   95.42    4.17
  -4   5   8   88.45    3.84
   4  -5   8   85.18    3.85
   4  -5   8   85.35    3.79
  -1  -4   8   83.47    3.79
  -4   5   8   87.34    4.02
  -4   5   8   83.31    3.85
   2   3  -8    0.94    0.14
  -2  -3  -8    0.81    0.12
  -3   5  -8    0.66    0.13
  -5   2  -8    0.68    0.18
   3  -5  -8    0.66    0.12
   3  -5  -8    0.74    0.13
  -2  -3  -8    0.85    0.14
   3  -5  -8    0.89    0.14
  -2  -3  -8    0.92    0.18
  -3   5   8    0.76    0.18
  -3   5   8    0.69    0.12
   2   3   8    0.69    0.13
  -3   5   8    0.59    0.13
   2   3   8    0.85    0.13
  -5   2   8    0.71    0.23
  -3   5   8    0.58    0.12
  -2  -3   8    0.76    0.12
  -2  -3   8    0.92    0.18
   3  -5   8    0.67    0.14
  -3   5   8    0.65    0.12
   3  -5   8    0.70    0.12
  -2  -3   8    0.76    0.12
  -5   2   8    0.67    0.14
   5  -2   8    1.12    0.19
   2   3   8    0.55    0.12
   3  -5   8    0.66    0.12
  -2  -3   8    0.71    0.11
   3  -5   8    0.76    0.13
   2  -5  -8    0.90    0.15
   2  -5  -8    0.99    0.15
  -2   5  -8    0.73    0.13
   2  -5  -8    1.05    0.16
   3   2  -8    0.92    0.14
   5  -3  -8    0.61    0.14
  -3  -2  -8    0.69    0.16
  -5   3  -8    0.80    0.20
  -2   5   8    0.58    0.13
   2  -5   8    0.71    0.15
  -3  -2   8    0.60    0.10
   3   2   8    0.63    0.12
   3   2   8    0.87    0.13
   3   2   8    0.67    0.13
   5  -3   8    0.84    0.17
  -2   5   8    0.54    0.13
  -3  -2   8    0.54    0.21
  -3  -2   8    0.77    0.12
  -3  -2   8    0.46    0.13
  -2   5   8    0.70    0.12
  -2   5   8    0.55    0.16
   2  -5   8    0.52    0.11
   2  -5   8    0.69    0.12
  -3  -2   8    0.72    0.11
  -5   3   8    0.70    0.14
   2  -5   8    0.73    0.12
  -5   3   8    0.45    0.19
  -1   5  -8   89.77    4.05
  -4  -1  -8   90.87    4.15
   1  -5  -8   93.46    4.06
   5  -4  -8   96.37    4.05
   5  -4  -8   87.89    4.04
   1  -5  -8   91.85    4.04
   1  -5  -8   92.71    4.06
   5  -4   8   96.13    3.81
  -1   5   8   84.72    3.78
   1  -5   8   80.55    3.71
   1  -5   8   83.57    3.72
   1  -5   8   85.18    3.73
   1  -5   8   85.07    3.77
  -5   4   8   87.70    3.76
   5  -4   8   82.02    3.67
  -1   5   8   82.30    3.76
  -5   4   8   86.03    4.05
  -5   4   8   85.07    3.74
  -4  -1   8   87.78    4.10
   5  -4   8   83.95    3.67
  -1   5   8   84.68    3.83
  -5   4   8   77.34    3.75
  -1   5   8   84.31    3.71
  -4  -1   8   74.31    3.78
   4   1   8   83.42    3.76
   5  -5  -8    0.90    0.14
   0  -5  -8    0.62    0.13
   5  -5  -8    0.77    0.14
  -5   0  -8    0.83    0.18
  -5   5  -8    0.65    0.18
   0  -5  -8    0.81    0.17
   0  -5  -8    0.76    0.14
   0   5  -8    0.74    0.14
   0  -5  -8    0.63    0.13
   0   5   8    0.74    0.17
   0   5   8    0.61    0.14
   0  -5   8    0.62    0.14
  -5   5   8    0.51    0.18
   0   5   8    0.78    0.13
  -5   5   8    0.72    0.13
   5  -5   8    0.70    0.16
   5  -5   8    0.63    0.11
   0   5   8    0.61    0.14
  -5   0   8    0.80    0.26
  -5   0   8    0.75    0.16
   0  -5   8    0.50    0.11
   5  -5   8    0.78    0.12
   0  -5   8    0.61    0.13
  -5   5   8    0.76    0.15
   5  -5   8    0.70    0.12
   0  -5   8    0.59    0.12
   5  -6  -8    0.40    0.11
  -6   1  -8    0.60    0.17
  -1  -5  -8    0.60    0.16
  -1  -5  -8    0.52    0.11
   1   5  -8    0.46    0.12
   5  -6  -8    0.60    0.13
  -5   6  -8    0.43    0.17
  -5   6  -8    0.59    0.12
  -1  -5  -8    0.26    0.09
  -1  -5  -8    0.58    0.13
  -1  -5   8    0.39    0.11
  -5   6   8    0.50    0.20
  -5   6   8    0.32    0.11
   5  -6   8    0.46    0.10
  -6   1   8    0.57    0.15
   5  -6   8    0.44    0.13
  -1  -5   8    0.45    0.12
   1   5   8    0.30    0.11
  -5   6   8    0.54    0.12
  -6   1   8    0.55    0.23
   5  -6   8    0.47    0.11
  -1  -5   8    0.38    0.11
   1   5   8    0.55    0.12
   5  -6   8    0.41    0.10
  -1  -5   8    0.43    0.11
  -2  -4  -8    0.39    0.14
  -2  -4  -8    0.43    0.10
   4  -6  -8    0.44    0.11
   4  -6  -8    0.47    0.11
  -4   6  -8    0.48    0.12
   4  -6  -8    0.60    0.12
  -6   2  -8    0.34    0.14
  -4   6  -8    0.46    0.17
  -2  -4  -8    0.21    0.08
   2   4  -8    0.40    0.10
   2   4   8    0.41    0.10
   4  -6   8    0.47    0.11
   4  -6   8    0.40    0.12
  -4   6   8    0.49    0.11
  -6   2   8    0.38    0.19
  -2  -4   8    0.45    0.11
  -2  -4   8    0.46    0.11
   4  -6   8    0.38    0.10
  -4   6   8    0.31    0.14
  -4   6   8    0.43    0.11
  -4   6   8    0.47    0.12
  -2  -4   8    0.43    0.10
  -2  -4   8    0.53    0.14
   2   4   8    0.44    0.12
  -6   2   8    0.39    0.12
   2   4   8    0.41    0.12
   4  -6   8    0.48    0.12
  -3  -3  -8  408.02   17.53
  -3   6  -8  389.71   17.42
   3  -6  -8  425.62   17.44
  -6   3  -8  421.80   17.60
   3   3  -8  393.51   17.38
   3  -6  -8  402.11   17.41
   3  -6  -8  406.26   17.42
   3  -6   8  371.93   15.77
   3  -6   8  366.37   15.76
   3  -6   8  372.51   15.76
   3  -6   8  369.82   15.83
   3   3   8  384.65   15.73
  -3   6   8  365.09   15.94
  -3   6   8  362.99   15.75
   3   3   8  376.29   15.79
  -3   6   8  365.50   15.80
  -6   3   8  371.48   15.81
  -3  -3   8  379.51   15.73
  -6   3   8  324.05   16.12
   2  -6  -8    0.39    0.11
   2  -6  -8    0.42    0.12
  -4  -2  -8    0.37    0.14
  -2   6  -8    0.48    0.12
  -6   4  -8    0.44    0.17
   2  -6  -8    0.50    0.12
  -6   4   8    0.32    0.11
  -6   4   8    0.44    0.21
  -2   6   8    0.43    0.11
   2  -6   8    0.26    0.09
   2  -6   8    0.45    0.13
   2  -6   8    0.50    0.12
  -2   6   8    0.35    0.14
   2  -6   8    0.41    0.11
  -2   6   8    0.45    0.13
  -4  -2   8    0.40    0.13
   6  -4   8    0.33    0.12
  -1   6  -8    0.35    0.11
   1  -6  -8    0.43    0.12
   1  -6  -8    0.47    0.13
   1  -6  -8    0.59    0.13
  -5  -1  -8    0.50    0.16
  -6   5  -8    0.26    0.14
  -6   5   8    0.53    0.13
  -5  -1   8    0.57    0.16
   6  -5   8    0.63    0.16
   1  -6   8    0.44    0.11
  -1   6   8    0.77    0.15
   1  -6   8    0.52    0.14
  -1   6   8    0.67    0.16
   1  -6   8    0.57    0.13
   1  -6   8    0.36    0.11
  -6   5   8    0.53    0.23
  -5  -1   8    0.37    0.20
  -1   6   8    0.43    0.15
   0   6  -8  322.65   13.61
   0  -6  -8  314.53   13.49
  -6   0  -8  322.79   13.64
   0   6  -8  311.95   13.49
   6  -6  -8  331.83   13.48
   0  -6  -8  317.73   13.49
   0  -6  -8  321.04   13.48
  -6   6  -8  263.61   13.61
   0  -6   8  305.59   13.10
  -6   6   8  313.63   13.14
  -6   0   8  306.64   13.60
   0  -6   8  299.82   13.13
   0   6   8  289.93   13.07
   0  -6   8  294.17   13.08
  -6   0   8  320.78   13.17
   6  -6   8  312.01   13.16
  -6   6   8  299.41   13.46
   0   6   8  304.26   13.16
   0  -6   8  298.26   13.09
   5  -7  -8   60.70    2.78
  -7   2  -8   64.42    2.95
   5  -7  -8   60.72    2.79
  -2  -5  -8   61.11    2.76
  -2  -5  -8   63.10    2.92
  -5   7  -8   57.72    2.77
  -5   7  -8   64.87    3.00
   5  -7  -8   60.61    2.78
   2   5  -8   59.30    2.88
   2   5  -8   59.92    2.78
   5  -7   8   56.49    2.62
  -2  -5   8   60.52    2.73
  -5   7   8   60.15    2.68
  -2  -5   8   58.78    2.64
   2   5   8   55.39    2.68
   5  -7   8   56.87    2.63
  -2  -5   8   56.31    2.61
  -2  -5   8   57.30    2.62
  -7   2   8   62.72    3.09
  -7   2   8   58.98    2.71
   2   5   8   54.19    2.61
   5  -7   8   55.53    2.71
  -5   7   8   57.13    2.91
  -5   7   8   56.32    2.62
  -4   7  -8    0.13    0.11
  -4   7  -8    0.36    0.18
   4  -7  -8    0.25    0.09
   3   4  -8    0.22    0.10
  -7   3  -8    0.22    0.13
   3   4  -8    0.30    0.09
  -3  -4  -8    0.40    0.15
   4  -7  -8    0.27    0.10
   4  -7  -8    0.23    0.09
  -4   7  -8    0.13    0.08
   4  -7   8    0.29    0.12
  -7   3   8    0.21    0.10
   3   4   8    0.31    0.11
  -3  -4   8    0.23    0.11
   4  -7   8    0.25    0.09
   4  -7   8    0.18    0.09
  -7   3   8    0.12    0.14
  -4   7   8    0.21    0.08
  -4   7   8    0.25    0.14
  -4   7   8    0.23    0.10
   3  -7  -8    0.27    0.10
  -7   4  -8    0.42    0.17
   3  -7  -8    0.29    0.10
  -3   7  -8    0.24    0.12
  -4  -3  -8    0.15    0.10
  -3   7  -8    0.35    0.11
   3  -7  -8    0.26    0.10
  -3   7   8    0.30    0.10
  -7   4   8    0.26    0.19
   3  -7   8    0.14    0.08
   3  -7   8    0.37    0.13
  -3   7   8    0.19    0.12
  -3   7   8    0.16    0.09
   3  -7   8    0.27    0.10
   3  -7   8    0.15    0.08
  -7   4   8    0.32    0.12
  -4  -3   8    0.13    0.10
  -2   7  -8   57.92    2.83
   2  -7  -8   60.90    2.76
  -7   5  -8   61.19    2.90
   2  -7  -8   61.05    2.76
  -5  -2  -8   60.96    2.88
  -2   7  -8   55.31    2.73
  -2   7   8   58.95    2.64
   2  -7   8   56.38    2.71
   2  -7   8   56.50    2.64
  -7   5   8   58.21    2.69
  -2   7   8   55.09    2.80
   2  -7   8   57.14    2.65
  -5  -2   8   59.17    2.71
  -2   7   8   57.16    2.70
   0   0  -9    0.07    0.05
   0   0  -9    0.10    0.05
   0   0  -9    0.22    0.06
   0   0   9    0.13    0.06
   0   0   9    0.03    0.04
   0   0   9    0.00    0.03
   0   0   9    0.08    0.05
   0   0   9    0.06    0.04
   0   0   9    0.12    0.05
   1  -1  -9    0.99    0.14
  -1   1  -9    0.96    0.14
   1   0  -9    1.05    0.14
   0   1  -9    0.55    0.11
  -1   1  -9    0.90    0.14
  -1   1  -9    1.06    0.17
   1   0  -9    0.99    0.14
   1  -1  -9    1.11    0.13
   0  -1  -9    0.85    0.14
  -1   0  -9    0.77    0.15
  -1   0  -9    0.98    0.13
   1   0  -9    0.96    0.15
   0  -1  -9    0.60    0.13
   1  -1  -9    0.65    0.12
  -1   0  -9    1.04    0.14
   0   1  -9    1.11    0.19
   0   1  -9    0.73    0.14
   0   1   9    0.62    0.14
   1   0   9    1.06    0.16
   0  -1   9    0.70    0.14
   1  -1   9    0.78    0.13
   1   0   9    1.11    0.14
   1  -1   9    0.92    0.14
   1  -1   9    1.07    0.17
   1   0   9    0.78    0.11
   0   1   9    0.89    0.12
  -1   0   9    1.14    0.15
  -1   0   9    1.06    0.12
   0   1   9    0.51    0.11
   0   1   9    0.81    0.15
   1   0   9    0.75    0.11
  -1   0   9    0.99    0.16
   0   1   9    0.56    0.12
   0   1   9    0.42    0.11
  -1   1   9    0.96    0.14
   0  -1   9    0.61    0.12
   0  -1   9    0.77    0.15
  -1   1   9    0.84    0.14
  -1   0   9    0.99    0.14
   1  -1   9    0.82    0.15
  -1   1   9    0.57    0.13
  -1   1   9    1.31    0.18
  -1   0   9    0.86    0.15
   0  -1   9    0.88    0.16
   0  -1   9    0.68    0.12
  -1   1   9    0.68    0.12
  -1   1   9    0.65    0.12
  -1   0   9    0.71    0.11
  -2   1  -9   18.18    0.92
   2  -1  -9   17.83    0.81
  -1  -1  -9   15.93    0.88
   1  -2  -9   17.21    0.84
   2  -1  -9   17.04    0.82
  -1   2  -9   14.11    0.87
  -2   1  -9   14.85    0.83
  -2   1  -9   15.65    0.82
  -1   2  -9   17.04    0.84
   2  -1  -9   16.96    0.83
   1  -2  -9   17.15    0.82
   1  -2  -9   16.65    0.83
  -1   2   9   15.18    0.83
   2  -1   9   15.81    0.78
   1  -2   9   15.04    0.83
  -1  -1   9   16.12    0.90
  -1   2   9   17.04    0.88
  -2   1   9   15.38    0.77
   2  -1   9   15.37    0.83
   1  -2   9   15.41    0.79
  -2   1   9   17.19    0.82
   1  -2   9   15.72    0.79
   1  -2   9   14.22    0.83
  -1   2   9   15.93    0.84
  -1  -1   9   12.39    0.81
   1   1   9   13.77    0.82
  -1   2   9   16.11    0.77
   2  -1   9   15.56    0.78
  -2   1   9   15.68    0.78
  -1  -1   9   14.75    0.81
  -1   2   9   16.37    0.80
  -1  -1   9   16.93    0.80
  -2   1   9   14.87    0.90
   2  -1   9   17.88    0.83
  -2   2  -9    0.79    0.15
   2   0  -9    0.71    0.13
   0  -2  -9    0.82    0.13
  -2   2  -9    0.69    0.13
   0  -2  -9    0.91    0.15
   2  -2  -9    0.54    0.11
  -2   0  -9    0.93    0.13
   0  -2  -9    1.01    0.13
  -2   0  -9    0.67    0.16
   0   2  -9    1.08    0.16
   2  -2  -9    0.69    0.13
  -2   0  -9    0.72    0.12
   2   0  -9    0.76    0.13
   0  -2   9    0.70    0.15
   0  -2   9    0.63    0.11
  -2   2   9    0.78    0.13
   0   2   9    0.74    0.12
   2   0   9    0.64    0.10
  -2   0   9    0.89    0.14
   0   2   9    0.70    0.11
  -2   2   9    0.52    0.11
   2  -2   9    0.78    0.13
  -2   0   9    0.75    0.18
  -2   2   9    0.64    0.16
   0   2   9    0.54    0.12
  -2   0   9    0.68    0.13
  -2   2   9    0.66    0.14
   0   2   9    0.80    0.10
   0  -2   9    0.52    0.12
  -2   0   9    0.60    0.13
  -2   0   9    0.87    0.15
   2   0   9    1.01    0.17
   2  -2   9    0.48    0.12
   2  -2   9    0.63    0.13
   2   0   9    0.62    0.12
  -2   2   9    0.67    0.13
   0  -2   9    0.72    0.12
   2  -2   9    0.52    0.10
   2   0   9    0.65    0.11
   0   2   9    0.87    0.15
  -2   0   9    0.50    0.10
  -2   2   9    0.38    0.11
  -1  -2  -9    0.68    0.14
   2  -3  -9    0.75    0.12
  -3   1  -9    0.46    0.10
   2  -3  -9    0.61    0.11
  -3   1  -9    0.30    0.13
  -1  -2  -9    0.62    0.11
  -2   3  -9    1.18    0.21
  -2   3  -9    0.72    0.13
   3  -1  -9    0.78    0.13
  -3   1  -9    0.46    0.10
   3  -1  -9    0.65    0.11
  -1  -2  -9    0.77    0.14
   1   2  -9    0.76    0.13
   3  -1   9    0.62    0.11
  -2   3   9    0.65    0.13
  -1  -2   9    0.47    0.11
  -2   3   9    0.59    0.11
   1   2   9    0.47    0.12
  -3   1   9    0.65    0.13
   3  -1   9    0.82    0.15
   1   2   9    0.60    0.11
  -2   3   9    0.66    0.14
  -3   1   9    0.49    0.16
   2  -3   9    0.85    0.15
   1   2   9    0.61    0.12
  -3   1   9    0.43    0.11
  -3   1   9    0.52    0.10
  -2   3   9    0.86    0.13
  -1  -2   9    0.69    0.13
  -1  -2   9    0.53    0.13
  -3   1   9    0.64    0.11
   2  -3   9    0.47    0.10
  -1  -2   9    0.66    0.12
  -2   3   9    0.80    0.18
   2  -3   9    0.68    0.14
   3  -1   9    0.68    0.12
   3  -1   9    0.84    0.14
  -3   1   9    0.53    0.12
  -1  -2   9    0.34    0.11
   2  -3   9    0.76    0.12
  -1   3  -9    0.93    0.14
   3  -2  -9    0.23    0.08
   1  -3  -9    0.55    0.10
   1  -3  -9    0.68    0.11
   1  -3  -9    0.46    0.10
   3  -2  -9    0.29    0.08
  -2  -1  -9    0.35    0.09
  -2  -1  -9    0.60    0.15
  -3   2  -9    0.60    0.16
   2   1  -9    0.62    0.12
  -2  -1  -9    0.35    0.09
  -3   2  -9    0.74    0.12
   2   1  -9    0.48    0.11
  -1   3   9    0.58    0.11
  -3   2   9    0.55    0.11
  -3   2   9    0.55    0.11
   1  -3   9    0.67    0.14
  -1   3   9    0.44    0.10
  -3   2   9    0.59    0.12
  -1   3   9    0.72    0.10
   3  -2   9    0.32    0.10
   1  -3   9    0.62    0.12
   2   1   9    0.33    0.09
  -2  -1   9    0.47    0.10
   3  -2   9    0.50    0.11
  -3   2   9    0.22    0.12
   1  -3   9    0.49    0.10
   2   1   9    0.28    0.09
  -2  -1   9    0.72    0.12
  -2  -1   9    1.11    0.24
  -2  -1   9    0.61    0.13
   3  -2   9    0.64    0.11
  -2  -1   9    0.59    0.12
   2   1   9    0.45    0.11
   3  -2   9    0.42    0.12
  -2  -1   9    0.71    0.13
  -3   2   9    0.65    0.13
  -3   2   9    0.73    0.14
  -1   3   9    0.63    0.13
   1  -3   9    0.59    0.13
  -1   3   9    0.65    0.14
   2   1   9    0.35    0.11
   0  -3  -9    0.04    0.04
  -3   3  -9    0.13    0.08
   3   0  -9    0.04    0.05
   3   0  -9    0.05    0.05
  -3   3  -9   -0.02    0.04
   0  -3  -9    0.02    0.04
   3  -3  -9    0.09    0.06
   3  -3  -9    0.10    0.06
  -3   0  -9    0.20    0.06
   0   3  -9    0.04    0.05
  -3   0  -9    0.09    0.06
  -3   0  -9    0.02    0.06
   0  -3  -9    0.39    0.10
  -3   0   9    0.08    0.05
  -3   0   9    0.01    0.03
   3   0   9    0.02    0.03
   3   0   9    0.40    0.10
  -3   0   9    0.03    0.05
  -3   3   9    0.15    0.07
  -3   3   9    0.26    0.12
   3  -3   9    0.10    0.06
   0   3   9    0.19    0.08
   0  -3   9    0.05    0.05
   0  -3   9   -0.01    0.04
   3  -3   9    0.11    0.05
   0   3   9   -0.01    0.04
   3  -3   9    0.05    0.04
   3  -3   9    0.11    0.07
  -3   3   9    0.56    0.12
  -3   0   9    0.15    0.10
   3   0   9   -0.02    0.03
  -3   3   9    0.02    0.04
  -3   0   9    0.02    0.04
   0  -3   9    0.08    0.06
  -3   3   9    0.65    0.13
   3   0   9    0.15    0.06
   0  -3   9    0.28    0.08
   0   3   9    0.03    0.04
   0   3   9   -0.01    0.03
   4  -1  -9    0.35    0.10
  -1  -3  -9    0.65    0.15
  -4   1  -9    0.62    0.17
  -3   4  -9    0.53    0.11
   3  -4  -9    0.46    0.10
  -3   4  -9    0.35    0.13
   4  -1  -9    0.45    0.10
   1   3  -9    0.45    0.10
  -1  -3  -9    0.56    0.11
  -1  -3  -9    0.56    0.11
   3  -4  -9    0.59    0.11
   3  -4   9    0.52    0.13
  -1  -3   9    0.57    0.11
  -1  -3   9    0.48    0.11
   3  -4   9    0.33    0.08
   4  -1   9    0.38    0.09
  -1  -3   9    0.49    0.10
  -1  -3   9    0.51    0.12
   1   3   9    0.61    0.12
   3  -4   9    0.52    0.10
   4  -1   9    0.31    0.08
  -3   4   9    0.45    0.11
   3  -4   9    0.32    0.08
  -3   4   9    0.63    0.12
  -4   1   9    0.34    0.15
  -3   4   9    0.43    0.15
  -3   4   9    0.46    0.10
  -3   4   9    0.53    0.13
   1   3   9    0.42    0.11
   3  -4   9    0.44    0.11
  -4   1   9    0.58    0.14
  -4   1   9    0.40    0.10
   1   3   9    0.42    0.10
  -4   1   9    0.30    0.10
   4  -1   9    0.73    0.15
   4  -1   9    0.55    0.12
  -2  -2  -9   14.61    0.78
  -2  -2  -9   13.82    0.70
   4  -2  -9   12.64    0.68
   2   2  -9   13.60    0.70
  -2   4  -9   12.93    0.70
   2  -4  -9   13.84    0.69
   4  -2  -9   12.96    0.69
   2  -4  -9   13.16    0.70
  -2  -2  -9   13.04    0.71
  -4   2   9   12.65    0.64
  -4   2   9   10.92    0.84
  -2   4   9   11.61    0.69
   2  -4   9   11.92    0.69
  -2   4   9   12.59    0.75
   4  -2   9    9.79    0.66
   4  -2   9   11.36    0.70
   4  -2   9   12.21    0.64
   2  -4   9   12.24    0.65
   2   2   9   12.73    0.70
  -2  -2   9   13.11    0.71
  -2  -2   9   13.33    0.65
  -4   2   9   12.98    0.64
  -2   4   9   12.63    0.63
  -2  -2   9   11.92    0.86
  -2   4   9   11.40    0.67
   2   2   9   12.58    0.66
   2   2   9   13.43    0.70
  -2  -2   9   12.10    0.68
   2  -4   9   11.64    0.64
  -4   2   9   13.07    0.68
  -2  -2   9   12.59    0.66
  -4   2   9   13.63    0.68
   4  -2   9   12.61    0.63
  -2   4   9   12.46    0.64
  -4   2   9   12.10    0.69
   2  -4   9   12.66    0.65
  -3  -1  -9    0.60    0.16
  -3  -1  -9    0.59    0.12
   3   1  -9    0.44    0.10
  -4   3  -9    0.53    0.16
  -1   4  -9    0.57    0.11
   4  -3  -9    0.43    0.11
  -3  -1  -9    0.53    0.12
   4  -3  -9    0.26    0.09
   1  -4  -9    0.43    0.10
   1  -4  -9    0.60    0.15
  -4   3  -9    0.50    0.10
   1  -4  -9    0.43    0.10
   4  -3   9    0.47    0.13
  -1   4   9    0.47    0.10
  -4   3   9    0.29    0.09
  -1   4   9    0.51    0.13
   4  -3   9    0.47    0.11
   1  -4   9    0.49    0.11
   1  -4   9    0.59    0.12
   3   1   9    0.49    0.11
   1  -4   9    0.46    0.10
   3   1   9    0.18    0.07
   4  -3   9    0.55    0.10
  -4   3   9    0.45    0.11
   4  -3   9    0.54    0.10
  -4   3   9    0.55    0.12
  -4   3   9    0.34    0.15
  -1   4   9    0.35    0.10
  -1   4   9    0.44    0.11
  -3  -1   9    0.42    0.12
  -4   3   9    0.25    0.09
   3   1   9    0.49    0.12
   1  -4   9    0.47    0.12
  -3  -1   9    0.62    0.13
  -4   3   9    0.58    0.13
  -3  -1   9    0.48    0.10
  -3  -1   9    0.51    0.19
   3   1   9    0.44    0.12
  -3  -1   9    0.50    0.10
   4   0  -9    0.48    0.10
   0  -4  -9    0.51    0.11
   4  -4  -9    0.42    0.10
  -4   4  -9    0.47    0.10
   0  -4  -9    0.54    0.12
  -4   4  -9    0.47    0.15
   0  -4  -9    0.41    0.10
  -4   0  -9    0.31    0.12
   4  -4  -9    0.67    0.13
   0   4  -9    0.31    0.09
  -4   4   9    0.38    0.10
  -4   0   9    0.39    0.16
   0  -4   9    0.38    0.10
  -4   4   9    0.42    0.11
  -4   4   9    0.39    0.11
  -4   0   9    0.55    0.12
   0  -4   9    0.56    0.11
   0   4   9    0.34    0.10
   4  -4   9    0.50    0.13
  -4   4   9    0.30    0.14
   4   0   9    0.27    0.10
   4  -4   9    0.26    0.07
   0   4   9    0.40    0.11
   0  -4   9    0.44    0.10
   4   0   9    0.36    0.09
   4   0   9    0.52    0.12
   4  -4   9    0.50    0.10
   4  -4   9    0.55    0.11
   0   4   9    0.37    0.09
   0  -4   9    0.90    0.16
  -4   0   9    0.38    0.09
  -4   4   9    0.31    0.10
  -4   0   9    0.37    0.12
  -5   1  -9   10.83    0.70
  -4   5  -9   10.62    0.70
   4  -5  -9    9.32    0.56
  -4   5  -9    9.43    0.55
  -1  -4  -9   10.48    0.63
   1   4  -9    8.94    0.55
   4  -5  -9    9.69    0.56
  -1  -4  -9    9.98    0.57
  -1  -4  -9   10.13    0.56
   4  -5   9    9.40    0.52
   1   4   9    8.55    0.56
  -5   1   9   10.58    0.62
   4  -5   9    8.77    0.51
  -4   5   9    9.77    0.58
   4  -5   9    8.56    0.52
  -4   5   9    9.61    0.53
  -1  -4   9    9.18    0.53
  -1  -4   9    8.53    0.52
   4  -5   9    8.83    0.57
   1   4   9    8.91    0.56
  -4   5   9    9.70    0.71
   1   4   9    8.80    0.52
  -4   5   9    8.59    0.57
  -1  -4   9    8.58    0.53
  -5   1   9    9.96    0.76
  -1  -4   9    9.87    0.58
  -4   5   9    9.53    0.55
  -2  -3  -9    0.28    0.09
   3  -5  -9    0.38    0.10
   3  -5  -9    0.43    0.10
  -3   5  -9    0.42    0.11
  -5   2  -9    0.29    0.13
  -2  -3  -9    0.33    0.12
   2   3  -9    0.28    0.09
  -2  -3  -9    0.24    0.08
  -3   5  -9    0.19    0.12
  -2  -3   9    0.39    0.09
  -2  -3   9    0.30    0.08
   2   3   9    0.45    0.12
  -5   2   9    0.28    0.16
  -3   5   9    0.35    0.09
   2   3   9    0.38    0.11
  -2  -3   9    0.47    0.13
   3  -5   9    0.27    0.08
  -3   5   9    0.34    0.10
  -3   5   9    0.27    0.10
   3  -5   9    0.25    0.09
   5  -2   9    0.39    0.12
  -5   2   9    0.41    0.12
   3  -5   9    0.30    0.08
  -3   5   9    0.28    0.08
   3  -5   9    0.28    0.08
   2   3   9    0.37    0.09
  -3   5   9    0.23    0.11
  -2  -3   9    0.31    0.09
   5  -3  -9    0.32    0.10
   2  -5  -9    0.22    0.08
  -5   3  -9    0.12    0.11
  -2   5  -9    0.33    0.10
   5  -3  -9    0.29    0.09
  -3  -2  -9    0.45    0.14
   2  -5  -9    0.26    0.09
   3   2  -9    0.37    0.09
   2  -5  -9    0.21    0.07
  -3  -2   9    0.51    0.21
  -2   5   9    0.33    0.10
   3   2   9    0.26    0.09
  -3  -2   9    0.39    0.09
  -5   3   9    0.24    0.15
  -3  -2   9    0.46    0.10
  -5   3   9    0.32    0.10
  -2   5   9    0.40    0.10
  -3  -2   9    0.29    0.12
   2  -5   9    0.39    0.10
   2  -5   9    0.37    0.10
   3   2   9    0.27    0.09
   5  -3   9    0.18    0.09
  -2   5   9    0.26    0.10
   3   2   9    0.34    0.09
   3   2   9    0.28    0.10
  -3  -2   9    0.26    0.07
   2  -5   9    0.21    0.09
  -2   5   9    0.26    0.11
   2  -5   9    0.40    0.10
   1  -5  -9    9.65    0.56
   1  -5  -9    9.85    0.56
   1  -5  -9    9.84    0.55
  -1   5  -9    9.41    0.55
  -5   4  -9    9.49    0.68
   5  -4  -9    9.47    0.56
  -4  -1  -9    9.98    0.65
   5  -4  -9    7.58    0.53
   1  -5   9    9.50    0.54
  -1   5   9    8.96    0.60
  -1   5   9    8.74    0.56
   4   1   9    7.08    0.54
  -4  -1   9   10.65    0.81
   5  -4   9    8.58    0.48
   1  -5   9    9.14    0.57
   5  -4   9    8.83    0.49
   1  -5   9    8.02    0.52
  -5   4   9    8.41    0.74
  -1   5   9    8.95    0.57
   5  -4   9    9.89    0.60
  -5   4   9    9.32    0.55
  -5   4   9    9.62    0.56
  -1   5   9    8.79    0.52
   1  -5   9    9.33    0.53
   0  -5  -9    0.14    0.07
   0   5  -9    0.24    0.09
  -5   0  -9    0.32    0.14
   0  -5  -9    0.22    0.10
   5  -5  -9    0.20    0.09
  -5   5  -9    0.31    0.14
   0  -5  -9    0.16    0.08
   5  -5  -9    0.30    0.09
   0  -5  -9    0.33    0.10
   0  -5   9    0.14    0.07
   0   5   9    0.21    0.09
   0   5   9    0.34    0.10
   5  -5   9    0.25    0.07
   5  -5   9    0.17    0.07
   0  -5   9    0.29    0.09
   0  -5   9    0.22    0.08
  -5   5   9    0.24    0.09
   0  -5   9    0.33    0.11
   0   5   9    0.17    0.09
   5  -5   9    0.20    0.09
  -5   0   9    0.24    0.11
  -5   5   9    0.14    0.08
  -5   5   9    0.14    0.12
  -5   0   9    0.27    0.16
  -5   5   9    0.31    0.10
   5  -5   9    0.21    0.07
   1   5  -9    0.19    0.09
  -5   6  -9    0.35    0.10
  -6   1  -9    0.16    0.12
   5  -6  -9    0.29    0.10
  -1  -5  -9    0.30    0.10
   5  -6  -9    0.24    0.09
  -5   6  -9    0.33    0.15
  -1  -5  -9    0.15    0.10
  -1  -5  -9    0.27    0.10
  -1  -5   9    0.18    0.08
  -1  -5   9    0.22    0.09
  -6   1   9    0.11    0.12
  -5   6   9    0.16    0.14
  -5   6   9    0.19    0.09
  -1  -5   9    0.28    0.12
   5  -6   9    0.14    0.07
   5  -6   9    0.16    0.09
   1   5   9    0.11    0.07
   1   5   9    0.14    0.09
  -6   1   9    0.23    0.11
   1   5   9    0.13    0.08
   5  -6   9    0.27    0.09
  -1  -5   9    0.15    0.08
  -5   6   9    0.13    0.08
   5  -6   9    0.11    0.06
   4  -6  -9    0.16    0.08
  -2  -4  -9    0.34    0.10
   4  -6  -9    0.17    0.08
  -4   6  -9    0.24    0.15
   2   4  -9    0.36    0.11
  -4   6  -9    0.27    0.10
   4  -6  -9    0.38    0.11
  -2  -4  -9    0.32    0.13
  -2  -4  -9    0.20    0.08
  -6   2  -9    0.33    0.16
  -4   6   9    0.28    0.14
  -2  -4   9    0.25    0.09
  -2  -4   9    0.33    0.09
  -2  -4   9    0.38    0.12
  -4   6   9    0.39    0.11
  -6   2   9    0.26    0.16
   2   4   9    0.30    0.11
   4  -6   9    0.25    0.09
   4  -6   9    0.36    0.10
   4  -6   9    0.24    0.09
   2   4   9    0.24    0.08
  -4   6   9    0.19    0.08
  -6   2   9    0.28    0.11
   2   4   9    0.16    0.09
  -4   6   9    0.16    0.08
  -2  -4   9    0.13    0.07
   4  -6   9    0.18    0.09
   3  -6  -9    0.08    0.07
   3  -6  -9   -0.04    0.05
  -6   3  -9    0.04    0.09
  -3  -3  -9    0.11    0.10
   3  -6  -9    0.07    0.07
  -3   6  -9   -0.01    0.06
   3   3  -9    0.22    0.09
  -3  -3   9    0.08    0.06
   3   3   9    0.08    0.07
  -3  -3   9    0.18    0.07
   3  -6   9    0.04    0.06
   3  -6   9    0.03    0.06
  -3   6   9    0.08    0.08
  -3   6   9    0.09    0.07
  -3   6   9    0.00    0.05
   3  -6   9   -0.01    0.05
  -6   3   9    0.13    0.13
   3  -6   9    0.00    0.06
   3   3   9    0.02    0.06
  -6   3   9    0.04    0.07
  -6   4  -9    0.14    0.13
  -2   6  -9    0.28    0.10
  -4  -2  -9    0.38    0.15
   2  -6  -9    0.22    0.09
   2  -6  -9    0.33    0.11
   2  -6  -9    0.29    0.10
  -2   6   9    0.16    0.10
   6  -4   9    0.18    0.10
  -2   6   9    0.24    0.09
   2  -6   9    0.12    0.08
   2  -6   9    0.17    0.08
  -6   4   9    0.08    0.12
  -6   4   9    0.30    0.11
  -4  -2   9    0.10    0.09
   2  -6   9    0.23    0.08
   2  -6   9    0.24    0.09
  -2   6   9    0.14    0.09
  -1   6  -9    0.17    0.09
   1  -6  -9    0.25    0.10
   1  -6  -9    0.24    0.10
   1  -6  -9    0.15    0.08
  -6   5  -9    0.16    0.13
  -5  -1  -9    0.35    0.15
   1  -6   9    0.18    0.08
  -6   5   9    0.13    0.14
  -5  -1   9    0.15    0.14
  -1   6   9    0.25    0.11
   1  -6   9    0.23    0.10
  -1   6   9    0.22    0.08
  -6   5   9    0.13    0.08
  -5  -1   9    0.15    0.10
   6  -5   9    0.11    0.08
   1  -6   9    0.17    0.08
  -1   6   9    0.12    0.10
   1  -6   9    0.25    0.10
   0  -6  -9   -0.02    0.06
  -6   6  -9    0.18    0.12
   6  -6  -9    0.36    0.11
  -6   0  -9    0.05    0.08
   6  -6  -9    0.12    0.09
   0   6  -9    0.02    0.07
   0  -6  -9    0.00    0.07
   0  -6  -9    0.01    0.08
   0   6  -9    0.10    0.08
   0   6   9    0.11    0.08
  -6   6   9    0.39    0.13
   0  -6   9    0.05    0.07
   0  -6   9    0.02    0.06
  -6   6   9    1.11    0.32
   0  -6   9    0.03    0.07
   0  -6   9    0.16    0.09
   6  -6   9    0.02    0.07
   0   6   9    0.14    0.10
  -6   0   9    0.03    0.08
  -6   0   9    0.14    0.14
   0   0 -10   73.17    3.22
   0   0 -10   75.06    3.25
   0   0 -10   69.85    3.20
   0   0  10   65.28    3.04
   0   0  10   68.16    3.05
   0   0  10   68.86    3.10
   0   0  10   70.69    3.11
   0   0  10   71.23    3.05
   0   0  10   69.92    3.09
   1  -1 -10    1.31    0.15
   1   0 -10    1.28    0.15
   1   0 -10    1.51    0.15
   0  -1 -10    0.97    0.15
  -1   0 -10    1.40    0.17
  -1   0 -10    1.28    0.17
   1  -1 -10    1.28    0.18
  -1   1 -10    1.15    0.17
  -1   1 -10    1.35    0.16
   0  -1 -10    1.06    0.18
   0  -1 -10    1.09    0.17
  -1   0 -10    1.01    0.14
   1   0 -10    1.29    0.17
   1  -1 -10    1.43    0.15
  -1   1 -10    1.12    0.17
   0   1 -10    1.17    0.19
   0   1 -10    0.98    0.16
   0   1 -10    1.43    0.19
   1   0  10    1.27    0.13
   0   1  10    0.84    0.14
   0   1  10    1.18    0.15
   1  -1  10    1.26    0.17
  -1   1  10    1.23    0.16
   1  -1  10    0.86    0.16
   0  -1  10    1.27    0.18
   1  -1  10    1.27    0.16
   1   0  10    1.11    0.12
   1   0  10    1.37    0.16
  -1   1  10    1.04    0.15
  -1   1  10    0.88    0.14
   0  -1  10    1.19    0.17
  -1   0  10    1.16    0.16
   0  -1  10    1.05    0.18
   0   1  10    0.90    0.17
   1   0  10    1.11    0.12
   0   1  10    0.87    0.17
  -1   1  10    1.29    0.21
   1   0  10    1.37    0.16
  -1   0  10    1.14    0.15
  -1   0  10    1.31    0.14
   0   1  10    1.08    0.16
  -1   1  10    1.27    0.14
  -1   1  10    1.27    0.18
   1  -1  10    1.34    0.14
  -1   0  10    1.23    0.13
  -1   0  10    1.42    0.14
   0   1  10    1.28    0.13
   0  -1  10    1.15    0.19
  -1   0  10    1.23    0.15
   0  -1  10    1.49    0.18
   2  -1 -10  182.45    7.07
   1  -2 -10  162.80    7.06
   1  -2 -10  166.84    7.08
  -1  -1 -10  141.88    7.06
  -1  -1 -10  138.62    7.11
   1   1 -10  137.59    7.06
  -1   2 -10  164.15    7.14
  -2   1 -10  183.89    7.08
   2  -1 -10  180.75    7.06
   1  -2 -10  168.34    7.10
   2  -1 -10  184.32    7.04
  -2   1 -10  170.66    7.08
  -1   2 -10  138.45    7.06
  -1   2  10  151.13    6.48
  -1   2  10  142.89    6.53
  -1   2  10  154.87    6.45
  -2   1  10  171.53    6.45
  -1   2  10  164.33    6.51
   1  -2  10  124.28    6.45
  -1  -1  10  162.59    6.51
   2  -1  10  166.81    6.52
   1  -2  10  124.88    6.45
  -2   1  10  130.15    6.49
  -1   2  10  163.59    6.60
  -2   1  10  126.53    6.47
  -2   1  10  162.41    6.45
   1   1  10  140.75    6.52
   1  -2  10  140.21    6.53
  -1  -1  10  168.47    6.48
  -2   1  10  167.39    6.64
  -1   2  10  139.35    6.52
   1   1  10  124.79    6.45
   2  -2 -10    0.75    0.15
   2   0 -10    1.47    0.16
  -2   0 -10    1.10    0.15
   0  -2 -10    1.63    0.21
   0   2 -10    0.76    0.14
   0  -2 -10    1.23    0.17
   2   0 -10    1.18    0.17
  -2   0 -10    0.65    0.16
  -2   2 -10    1.28    0.20
   2  -2 -10    0.66    0.13
  -2   2 -10    0.99    0.17
  -2   0 -10    1.04    0.14
   0  -2 -10    1.36    0.16
  -2   2 -10    0.83    0.14
  -2   2  10    0.82    0.16
  -2   2  10    0.68    0.14
   0   2  10    1.05    0.15
   2  -2  10    0.73    0.14
  -2   0  10    1.29    0.17
   2  -2  10    0.69    0.15
  -2   0  10    0.96    0.17
   2  -2  10    0.80    0.14
   2   0  10    1.26    0.19
  -2   0  10    1.25    0.18
   2   0  10    0.96    0.15
   0  -2  10    0.96    0.18
   0  -2  10    0.95    0.16
   2   0  10    0.94    0.13
   2  -2  10    0.77    0.17
  -2   2  10    1.05    0.18
  -2   0  10    1.36    0.16
  -2   0  10    1.14    0.18
  -2   2  10    0.74    0.14
  -2   2  10    0.83    0.20
   0   2  10    1.37    0.19
   2   0  10    0.92    0.13
  -2   0  10    1.35    0.17
  -2   2  10    0.96    0.15
   0  -2  10    1.04    0.17
   0  -2  10    1.06    0.19
   0   2  10    1.13    0.19
   0   2  10    0.94    0.18
   3  -1 -10    1.01    0.15
  -3   1 -10    0.96    0.16
  -2   3 -10    0.77    0.17
   1   2 -10    1.05    0.17
  -3   1 -10    0.83    0.14
  -1  -2 -10    1.31    0.19
   3  -1 -10    1.01    0.15
  -2   3 -10    1.28    0.18
  -1  -2 -10    1.19    0.20
   2  -3 -10    0.85    0.14
   2  -3 -10    0.97    0.15
  -3   1 -10    0.61    0.17
  -1  -2 -10    0.84    0.14
  -3   1  10    1.00    0.16
  -1  -2  10    1.04    0.17
  -2   3  10    1.05    0.15
   3  -1  10    1.21    0.18
  -1  -2  10    0.89    0.17
  -1  -2  10    0.78    0.17
  -1  -2  10    0.92    0.15
   2  -3  10    0.96    0.18
   2  -3  10    1.38    0.19
   2  -3  10    0.95    0.18
   3  -1  10    0.95    0.14
   3  -1  10    0.92    0.16
   2  -3  10    1.01    0.15
  -2   3  10    0.98    0.18
  -3   1  10    0.90    0.14
  -1  -2  10    0.69    0.14
  -3   1  10    0.92    0.22
   1   2  10    0.81    0.16
  -3   1  10    0.58    0.14
   1   2  10    0.94    0.15
  -3   1  10    0.59    0.14
  -3   1  10    1.03    0.15
   1   2  10    1.01    0.19
  -2   3  10    1.00    0.15
   3  -1  10    1.11    0.15
  -2   3  10    0.94    0.17
  -2   3  10    0.90    0.20
  -2  -1 -10    1.03    0.20
   3  -2 -10    1.01    0.16
  -1   3 -10    1.04    0.17
  -2  -1 -10    0.83    0.14
   1  -3 -10    1.10    0.16
   3  -2 -10    0.77    0.14
  -3   2 -10    1.04    0.21
  -3   2 -10    0.77    0.14
   2   1 -10    0.71    0.14
   1  -3 -10    0.96    0.15
   1  -3 -10    1.26    0.18
   2   1 -10    0.61    0.14
  -2  -1 -10    0.93    0.16
   2   1  10    0.53    0.14
  -2  -1  10    0.93    0.18
   1  -3  10    0.87    0.16
  -3   2  10    0.84    0.23
  -3   2  10    1.10    0.15
   2   1  10    0.75    0.14
   1  -3  10    0.89    0.15
   1  -3  10    0.98    0.18
   3  -2  10    0.70    0.13
  -3   2  10    1.00    0.15
  -3   2  10    0.98    0.18
  -2  -1  10    0.64    0.14
  -1   3  10    0.87    0.17
  -2  -1  10    1.08    0.24
   3  -2  10    0.75    0.16
  -1   3  10    0.81    0.13
  -3   2  10    1.05    0.17
  -1   3  10    1.10    0.18
  -2  -1  10    1.02    0.16
  -2  -1  10    0.64    0.13
   3  -2  10    0.70    0.13
   1  -3  10    1.32    0.19
  -1   3  10    0.94    0.18
   2   1  10    0.47    0.14
  -3   2  10    1.24    0.15
  -2  -1  10    0.86    0.15
   2   1  10    0.61    0.13
   3  -2  10    0.56    0.14
   0  -3 -10   51.49    2.36
  -3   3 -10   53.28    2.47
   0  -3 -10   56.08    2.41
   0  -3 -10   55.41    2.39
   3   0 -10   44.10    2.36
   3  -3 -10   55.01    2.41
  -3   0 -10   54.36    2.34
  -3   3 -10   59.09    2.39
   3  -3 -10   47.62    2.38
  -3   0 -10   47.36    2.48
   0   3 -10   54.77    2.39
   3   0 -10   45.91    2.36
  -3   0 -10   55.55    2.37
  -3   0  10   51.73    2.34
   0   3  10   50.89    2.30
  -3   3  10   49.52    2.35
   3   0  10   53.86    2.39
   3   0  10   49.56    2.27
   3  -3  10   54.33    2.32
   0   3  10   52.62    2.38
  -3   3  10   51.34    2.34
   0   3  10   49.93    2.35
   0  -3  10   50.65    2.38
   3   0  10   50.30    2.27
   3  -3  10   49.91    2.39
   3  -3  10   51.93    2.37
   3   0  10   48.50    2.33
  -3   3  10   51.92    2.33
  -3   0  10   47.33    2.36
  -3   3  10   43.14    2.31
   0  -3  10   51.38    2.32
  -3   0  10   53.19    2.51
   0  -3  10   51.15    2.38
   3  -3  10   53.46    2.32
  -3   3  10   49.08    2.52
   0  -3  10   52.23    2.33
  -4   1 -10    0.52    0.17
  -1  -3 -10    0.76    0.14
  -3   4 -10    0.76    0.14
   3  -4 -10    0.93    0.15
  -3   4 -10    0.82    0.20
  -1  -3 -10    0.79    0.17
   4  -1 -10    0.82    0.15
  -1  -3 -10    0.64    0.13
   1   3 -10    0.72    0.14
   4  -1 -10    0.85    0.15
   3  -4 -10    0.67    0.13
   1   3  10    0.73    0.16
   4  -1  10    0.83    0.16
  -1  -3  10    0.62    0.15
  -3   4  10    0.63    0.15
   4  -1  10    0.74    0.14
  -3   4  10    0.54    0.13
   4  -1  10    0.69    0.12
  -1  -3  10    0.61    0.14
  -1  -3  10    0.82    0.14
   4  -1  10    0.70    0.13
  -4   1  10    0.35    0.11
  -1  -3  10    0.70    0.13
   3  -4  10    0.85    0.17
  -1  -3  10    0.60    0.13
  -3   4  10    0.62    0.18
  -3   4  10    0.65    0.12
   3  -4  10    0.81    0.14
  -3   4  10    0.68    0.13
  -4   1  10    0.63    0.16
  -4   1  10    0.55    0.12
   1   3  10    0.68    0.13
   3  -4  10    0.76    0.14
   3  -4  10    0.67    0.15
  -4   1  10    0.69    0.21
   1   3  10    0.72    0.15
   3  -4  10    0.76    0.14
   2  -4 -10  133.58    5.83
  -2  -2 -10  148.23    5.97
   2   2 -10  150.68    5.88
  -2  -2 -10  132.51    5.85
  -4   2 -10  113.27    5.96
  -2  -2 -10  113.26    5.84
  -2   4 -10  138.02    5.85
   4  -2 -10  137.46    5.82
   4  -2 -10  135.89    5.83
   2  -4 -10  136.91    5.84
  -4   2  10  132.68    5.71
   2  -4  10  133.60    5.75
  -4   2  10  131.00    5.72
  -2  -2  10  112.24    5.76
  -4   2  10  146.31    5.79
  -2   4  10  135.84    5.89
  -4   2  10  122.99    6.01
  -4   2  10  139.52    5.79
  -4   2  10  121.45    5.79
  -2   4  10  127.50    5.80
  -2  -2  10  132.29    5.79
  -2  -2  10  137.72    6.05
   2   2  10  130.24    5.76
   2   2  10  135.94    5.82
   2   2  10  136.37    5.82
  -2   4  10  136.99    5.72
   2  -4  10  134.68    5.76
   2  -4  10  135.18    5.76
  -2  -2  10  137.14    5.77
   4  -2  10  115.25    5.71
  -2   4  10  121.78    5.73
   2  -4  10  138.92    5.82
  -2   4  10  128.40    5.79
   2  -4  10  127.34    5.80
   4  -2  10  123.80    5.80
  -2  -2  10  137.60    5.75
   2   2  10  140.02    5.80
  -2  -2  10  136.57    5.82
  -3  -1 -10    0.81    0.19
  -3  -1 -10    0.80    0.14
  -4   3 -10    0.73    0.13
   3   1 -10    0.71    0.14
  -4   3 -10    0.59    0.17
  -3  -1 -10    0.87    0.14
   4  -3 -10    0.63    0.13
   1  -4 -10    0.86    0.14
   1  -4 -10    0.63    0.12
  -1   4 -10    0.61    0.13
   4  -3 -10    0.37    0.11
   4  -3  10    0.62    0.12
   4  -3  10    0.66    0.16
  -1   4  10    0.68    0.15
  -4   3  10    0.81    0.16
  -4   3  10    0.77    0.16
  -3  -1  10    0.55    0.13
  -3  -1  10    0.64    0.14
   1  -4  10    0.75    0.16
  -1   4  10    0.67    0.15
  -1   4  10    0.61    0.13
   1  -4  10    0.70    0.13
   3   1  10    0.56    0.12
   3   1  10    0.47    0.13
  -4   3  10    0.66    0.13
   1  -4  10    0.79    0.14
  -3  -1  10    0.74    0.22
   4  -3  10    0.96    0.15
  -3  -1  10    0.61    0.12
  -4   3  10    0.86    0.16
   3   1  10    0.56    0.14
  -4   3  10    0.60    0.13
   3   1  10    0.56    0.12
  -3  -1  10    0.71    0.13
  -1   4  10    0.73    0.13
   1  -4  10    0.54    0.11
  -4   3  10    0.49    0.19
   4  -3  10    0.61    0.14
   0   4 -10    0.44    0.11
   4   0 -10    0.76    0.15
  -4   0 -10    0.84    0.21
   0  -4 -10    0.65    0.13
   0  -4 -10    0.57    0.13
   0  -4 -10    0.72    0.16
   4  -4 -10    0.82    0.15
   4  -4 -10    0.64    0.14
  -4   4 -10    0.66    0.18
  -4   4 -10    0.75    0.13
   0  -4  10    0.51    0.12
   0   4  10    0.61    0.13
   4  -4  10    0.61    0.12
   4  -4  10    0.50    0.11
   4  -4  10    0.61    0.14
   0  -4  10    0.47    0.11
   0   4  10    0.43    0.12
   4  -4  10    0.52    0.14
   4  -4  10    0.49    0.11
  -4   4  10    0.64    0.14
  -4   4  10    0.57    0.20
  -4   4  10    0.46    0.12
   0  -4  10    0.56    0.14
   0   4  10    0.36    0.10
  -4   0  10    0.54    0.12
  -4   0  10    0.65    0.21
  -4   0  10    0.67    0.17
  -4   0  10    0.32    0.12
   4   0  10    0.55    0.13
   4   0  10    0.34    0.12
  -4   4  10    0.66    0.14
   4   0  10    0.56    0.11
  -4   4  10    0.48    0.14
   0  -4  10    0.46    0.11
  -1  -4 -10  115.97    4.98
  -4   5 -10  111.31    5.04
  -5   1 -10  114.80    5.08
  -4   5 -10  108.86    4.87
   1   4 -10  109.09    4.88
  -1  -4 -10  109.75    4.88
  -1  -4 -10  107.44    4.86
   4  -5 -10  111.91    4.88
   4  -5 -10  108.76    4.88
   1   4  10   97.98    4.60
  -5   1  10  100.29    4.66
   4  -5  10  104.66    4.55
  -4   5  10   98.69    4.55
   4  -5  10  107.45    4.55
   1   4  10   99.24    4.54
  -4   5  10   98.71    4.62
  -4   5  10  105.84    4.58
   4  -5  10  103.71    4.55
   4  -5  10  103.43    4.63
  -5   1  10  107.00    4.87
  -1  -4  10  104.40    4.57
  -1  -4  10  105.56    4.57
  -1  -4  10  103.99    4.56
  -4   5  10  105.38    4.63
  -1  -4  10  103.78    4.63
   1   4  10  103.38    4.62
  -4   5  10  103.18    4.82
  -1  -4  10  107.03    4.64
   2   3 -10    1.03    0.17
  -2  -3 -10    0.83    0.15
   3  -5 -10    0.76    0.14
  -3   5 -10    0.68    0.14
   3  -5 -10    0.91    0.16
  -5   2 -10    0.62    0.19
  -3   5 -10    0.50    0.17
  -2  -3 -10    0.99    0.22
  -2  -3 -10    1.14    0.19
  -3   5  10    0.88    0.21
  -3   5  10    0.88    0.15
   3  -5  10    0.63    0.13
   2   3  10    0.77    0.15
   2   3  10    0.86    0.17
   3  -5  10    0.70    0.14
  -2  -3  10    0.73    0.15
   5  -2  10    0.93    0.18
   2   3  10    0.73    0.14
   3  -5  10    0.79    0.17
  -3   5  10    0.77    0.14
  -5   2  10    0.63    0.21
  -5   2  10    0.74    0.18
  -2  -3  10    0.80    0.14
  -2  -3  10    0.89    0.16
  -2  -3  10    0.54    0.12
  -3   5  10    0.68    0.16
  -3   5  10    0.61    0.14
   3  -5  10    0.65    0.13
  -2   5 -10    0.81    0.15
  -3  -2 -10    0.76    0.19
   2  -5 -10    0.91    0.16
   3   2 -10    0.86    0.15
   2  -5 -10    0.71    0.14
   5  -3 -10    0.73    0.13
  -5   3 -10    0.67    0.21
   5  -3 -10    0.99    0.16
   3   2  10    0.77    0.15
  -2   5  10    0.58    0.15
  -3  -2  10    0.94    0.28
  -5   3  10    0.44    0.20
  -5   3  10    0.78    0.17
   5  -3  10    0.37    0.13
   2  -5  10    0.59    0.14
   2  -5  10    0.63    0.13
  -2   5  10    0.65    0.13
  -2   5  10    0.94    0.21
  -2   5  10    0.69    0.15
  -3  -2  10    0.80    0.15
   3   2  10    0.71    0.15
   2  -5  10    0.61    0.13
  -3  -2  10    0.83    0.14
  -3  -2  10    0.64    0.12
   3   2  10    0.40    0.12
   2  -5  10    0.61    0.13
   3   2  10    0.69    0.16
  -3  -2  10    0.85    0.18
   4   1 -10  116.69    4.73
  -5   4 -10  112.56    4.93
   1  -5 -10  104.39    4.72
   1  -5 -10  103.35    4.74
  -1   5 -10  111.81    4.76
   5  -4 -10   89.44    4.73
  -4  -1 -10  114.12    4.91
   1  -5  10  100.41    4.49
  -4  -1  10  114.78    4.88
   5  -4  10  103.22    4.59
  -5   4  10  105.93    4.54
  -1   5  10  101.25    4.58
  -1   5  10  100.86    4.55
   5  -4  10  102.60    4.44
  -1   5  10   97.38    4.52
   1  -5  10   98.27    4.53
  -5   4  10  107.98    4.52
  -1   5  10   96.70    4.46
   1  -5  10  101.00    4.49
   1  -5  10  102.25    4.48
   5  -4  10   98.58    4.43
  -5   4  10   88.71    4.80
   5  -5 -10    0.72    0.15
  -5   5 -10    0.71    0.21
   5  -5 -10    0.73    0.15
   0   5 -10    0.57    0.14
  -5   0 -10    0.66    0.20
   0  -5 -10    0.65    0.14
   0  -5 -10    0.54    0.13
  -5   0  10    0.63    0.18
   0  -5  10    0.63    0.14
  -5   0  10    0.85    0.27
   5  -5  10    0.58    0.16
   0   5  10    0.64    0.16
   0   5  10    0.56    0.13
  -5   5  10    0.63    0.15
   0   5  10    0.83    0.18
  -5   5  10    1.02    0.18
   5  -5  10    0.69    0.13
   5  -5  10    0.55    0.12
   0  -5  10    0.67    0.16
   0  -5  10    0.63    0.14
   5  -5  10    0.60    0.16
  -5   5  10    0.49    0.14
  -5   5  10    0.87    0.28
   0  -5  10    0.60    0.14
   5  -6 -10    0.47    0.13
   1   5 -10    0.66    0.15
   5  -6 -10    0.55    0.14
  -5   6 -10    0.43    0.12
  -6   1 -10    0.66    0.23
  -1  -5 -10    0.41    0.12
  -5   6 -10    0.56    0.18
  -1  -5 -10    0.37    0.11
  -1  -5 -10    0.61    0.18
  -1  -5  10    0.59    0.16
  -5   6  10    0.45    0.12
   5  -6  10    0.42    0.11
  -6   1  10    0.52    0.22
  -6   1  10    0.40    0.15
   5  -6  10    0.51    0.12
  -1  -5  10    0.63    0.15
   1   5  10    0.41    0.13
  -1  -5  10    0.82    0.16
   5  -6  10    0.37    0.11
   1   5  10    0.46    0.13
   5  -6  10    0.44    0.14
   1   5  10    0.54    0.13
  -5   6  10    0.50    0.20
  -5   6  10    0.71    0.16
  -1  -5  10    0.58    0.14
   2   4 -10    0.50    0.13
   4  -6 -10    0.37    0.11
  -4   6 -10    0.41    0.18
  -4   6 -10    0.36    0.12
   4  -6 -10    0.48    0.12
  -2  -4 -10    0.61    0.13
  -6   2 -10    0.34    0.16
  -2  -4 -10    0.58    0.18
  -2  -4 -10    0.47    0.13
  -6   2  10    0.63    0.18
  -2  -4  10    0.71    0.14
  -4   6  10    0.61    0.14
   4  -6  10    0.33    0.12
   4  -6  10    0.47    0.12
  -4   6  10    0.56    0.15
  -4   6  10    0.67    0.15
  -2  -4  10    0.51    0.12
   2   4  10    0.48    0.12
  -2  -4  10    0.58    0.15
  -2  -4  10    0.50    0.12
  -4   6  10    0.44    0.18
   2   4  10    0.44    0.13
   2   4  10    0.68    0.16
   4  -6  10    0.59    0.13
   4  -6  10    0.57    0.13
  -6   2  10    0.47    0.20
  -3   6 -10   34.15    1.66
   3  -6 -10   34.58    1.66
  -6   3 -10   29.18    1.81
   3  -6 -10   35.60    1.65
   3   3 -10   34.96    1.63
  -3  -3 -10   37.27    1.81
  -3   6  10   30.87    1.52
   3   3  10   33.38    1.60
  -3   6  10   30.77    1.57
  -3   6  10   31.02    1.61
   3  -6  10   31.85    1.55
  -6   3  10   32.65    1.62
   3  -6  10   30.55    1.60
  -3   6  10   31.84    1.70
  -6   3  10   31.03    1.87
  -3  -3  10   31.49    1.52
   3  -6  10   32.29    1.55
   3  -6  10   30.72    1.54
  -3  -3  10   34.33    1.64
   2  -6 -10    0.50    0.13
   2  -6 -10    0.59    0.14
  -6   4 -10    0.36    0.16
  -4  -2 -10    0.36    0.15
   2  -6 -10    0.46    0.12
  -2   6 -10    0.64    0.14
  -6   4  10    0.51    0.14
  -6   4  10    0.23    0.17
   2  -6  10    0.61    0.14
  -2   6  10    0.48    0.16
   6  -4  10    0.33    0.13
   2  -6  10    0.50    0.14
  -2   6  10    0.41    0.14
   2  -6  10    0.42    0.11
  -4  -2  10    0.34    0.13
   2  -6  10    0.48    0.13
  -2   6  10    0.49    0.12
  -2   6  10    0.47    0.14
   1  -6 -10    0.64    0.15
   1  -6 -10    0.48    0.14
  -6   5 -10    0.48    0.18
   1  -6 -10    0.53    0.14
  -1   6 -10    0.62    0.15
  -5  -1 -10    0.40    0.16
  -5  -1  10    0.46    0.22
   1  -6  10    0.52    0.15
  -1   6  10    0.55    0.15
   6  -5  10    0.62    0.18
   1  -6  10    0.43    0.13
  -5  -1  10    0.38    0.15
  -1   6  10    0.65    0.15
   1  -6  10    0.42    0.12
  -1   6  10    0.39    0.13
  -6   5  10    0.60    0.26
  -6   5  10    0.41    0.14
   1  -6  10    0.67    0.15
   0   0 -11    0.10    0.05
   0   0 -11    0.04    0.04
   0   0 -11    0.14    0.07
   0   0  11    0.25    0.07
   0   0  11    0.05    0.04
   0   0  11    0.02    0.04
   0   0  11    0.03    0.04
   0   0  11    0.12    0.05
   0   0  11    0.22    0.07
   0   1 -11    9.16    0.57
  -1   1 -11    9.91    0.56
   1   0 -11   10.16    0.54
   1  -1 -11    9.96    0.55
   0  -1 -11    9.19    0.55
  -1   1 -11    9.47    0.57
   1   0 -11    9.58    0.54
   1  -1 -11    8.96    0.53
   1  -1 -11   10.17    0.55
  -1   0 -11    8.86    0.52
  -1   1 -11   10.35    0.55
   0  -1 -11    9.84    0.58
   0   1 -11    9.12    0.55
   0   1 -11    9.37    0.55
  -1   0 -11   10.11    0.54
  -1   0 -11   10.04    0.60
   0  -1 -11    8.68    0.53
   1   0 -11    9.97    0.55
   0   1  11   10.02    0.53
   0  -1  11    9.10    0.52
   0  -1  11    9.74    0.55
   1  -1  11    9.18    0.57
   0   1  11    8.66    0.57
   1   0  11    9.32    0.51
   0  -1  11    8.78    0.56
  -1   1  11    9.60    0.60
  -1   1  11    9.89    0.55
  -1   1  11    8.47    0.51
  -1   0  11    9.10    0.56
   1  -1  11    9.72    0.53
  -1   1  11    9.25    0.56
  -1   1  11    8.86    0.52
  -1   0  11    9.42    0.53
   1   0  11    8.83    0.55
   0   1  11    9.53    0.60
   1  -1  11   10.26    0.54
   1  -1  11    9.78    0.58
  -1   0  11    9.04    0.58
   0  -1  11   10.06    0.55
   0  -1  11    9.92    0.60
   1   0  11    9.29    0.51
   1   0  11   10.33    0.59
   1   0  11    9.61    0.50
  -1   1  11    9.25    0.59
  -1   0  11    9.81    0.54
  -1   0  11    8.99    0.52
  -1   0  11    9.62    0.57
   0   1  11    8.97    0.53
   0  -1  11   10.10    0.60
   0   1  11    8.62    0.53
   2  -1 -11   59.85    2.65
   2  -1 -11   58.83    2.65
  -1   2 -11   55.89    2.72
  -2   1 -11   61.12    2.68
  -1  -1 -11   54.56    2.66
  -2   1 -11   61.75    2.66
   1   1 -11   58.82    2.69
  -2   1 -11   65.80    2.76
  -1  -1 -11   57.34    2.67
   1   1 -11   57.34    2.68
  -2   1  11   57.04    2.58
   1   1  11   52.20    2.53
  -1  -1  11   52.49    2.54
   2  -1  11   59.29    2.53
  -2   1  11   58.37    2.52
   2  -1  11   56.87    2.58
   1   1  11   50.56    2.53
  -2   1  11   57.70    2.68
   1   1  11   57.66    2.62
  -1  -1  11   57.39    2.54
  -1  -1  11   47.64    2.59
  -1  -1  11   55.84    2.57
  -2   1  11   56.25    2.51
  -1  -1  11   60.13    2.67
  -2   1  11   55.34    2.60
  -2   1  11   59.31    2.57
   2  -1  11   59.07    2.53
   0  -2 -11    7.85    0.52
   2  -2 -11    6.55    0.47
   0  -2 -11    7.38    0.50
   0  -2 -11    7.60    0.49
   2   0 -11    8.16    0.50
   2   0 -11    9.84    0.50
  -2   0 -11    8.72    0.46
  -2   2 -11    9.07    0.54
  -2   0 -11    8.94    0.48
   2  -2 -11    6.55    0.48
  -2   0 -11    6.98    0.53
   2  -2  11    6.26    0.42
   0  -2  11    5.14    0.41
  -2   2  11    5.41    0.41
  -2   2  11    5.61    0.45
   0  -2  11    5.50    0.46
   0  -2  11    5.14    0.40
   0  -2  11    5.24    0.44
  -2   0  11    8.46    0.54
   0   2  11    7.45    0.45
   0   2  11    6.93    0.48
  -2   2  11    6.87    0.43
   2  -2  11    7.60    0.49
   2   0  11    8.13    0.46
   0   2  11    5.73    0.46
   0   2  11    7.04    0.45
   2  -2  11    6.22    0.42
  -2   2  11    7.34    0.44
  -2   2  11    7.87    0.48
   2  -2  11    5.60    0.45
  -2   2  11    5.71    0.51
   3  -1 -11    7.98    0.46
   2  -3 -11    8.14    0.49
  -3   1 -11    8.45    0.47
   2  -3 -11    8.10    0.50
   1   2 -11    5.77    0.46
  -1  -2 -11    6.42    0.48
  -1  -2 -11    8.18    0.54
  -2   3 -11    7.16    0.52
  -3   1 -11    7.27    0.46
  -2   3 -11    8.14    0.50
  -1  -2 -11    7.39    0.48
   3  -1 -11    8.19    0.46
  -3   1 -11    7.12    0.54
  -2   3  11    6.44    0.50
  -2   3  11    7.13    0.51
  -1  -2  11    6.37    0.46
  -3   1  11    8.34    0.49
   1   2  11    6.96    0.48
  -3   1  11    5.82    0.46
   2  -3  11    7.36    0.47
   2  -3  11    6.89    0.51
   3  -1  11    7.94    0.44
  -2   3  11    7.02    0.44
   3  -1  11    7.65    0.48
  -2   3  11    7.20    0.47
  -3   1  11    8.01    0.43
   3  -1  11    7.79    0.44
  -1  -2  11    7.37    0.46
   1   2  11    6.59    0.49
  -2   3  11    8.25    0.50
  -1  -2  11    6.16    0.48
  -3   1  11    7.89    0.44
   2  -3  11    7.37    0.52
  -1  -2  11    7.15    0.52
   1   2  11    6.96    0.46
  -3   1  11    7.77    0.58
  -1  -2  11    6.26    0.45
   3  -1  11    7.74    0.47
   2  -3  11    6.84    0.46
  -3   1  11    5.78    0.46
   1   2  11    6.32    0.50
  -2   3  11    7.27    0.57
  -1   3 -11    7.78    0.50
  -2  -1 -11    7.37    0.47
  -2  -1 -11    7.20    0.46
  -3   2 -11    8.52    0.56
  -2  -1 -11    6.67    0.53
   3  -2 -11    7.37    0.47
   1  -3 -11    8.12    0.49
   1  -3 -11    7.69    0.47
   3  -2 -11    7.58    0.46
  -3   2  11    5.91    0.47
  -3   2  11    7.56    0.43
  -3   2  11    7.30    0.46
  -1   3  11    8.14    0.47
  -1   3  11    7.29    0.51
  -2  -1  11    7.13    0.45
   2   1  11    7.20    0.44
   2   1  11    7.51    0.45
   3  -2  11    6.86    0.48
   1  -3  11    7.96    0.48
  -1   3  11    7.24    0.50
  -2  -1  11    7.48    0.46
   1  -3  11    7.29    0.52
  -1   3  11    7.75    0.53
   1  -3  11    7.11    0.51
   1  -3  11    7.74    0.48
   3  -2  11    6.92    0.50
   3  -2  11    5.28    0.42
   2   1  11    5.30    0.46
  -3   2  11    6.61    0.58
  -2  -1  11    7.85    0.58
  -2  -1  11    5.23    0.46
  -3   2  11    7.45    0.44
  -3   0 -11    0.03    0.04
   0  -3 -11    0.11    0.07
   3   0 -11    0.07    0.06
  -3   0 -11    0.17    0.10
  -3   3 -11    0.10    0.08
   3   0 -11    0.24    0.08
   3  -3 -11    0.39    0.12
   0  -3 -11    0.09    0.07
   0   3 -11    0.28    0.10
   0  -3 -11    0.05    0.06
  -3   3 -11    0.18    0.08
  -3   0 -11    0.05    0.05
   3  -3 -11    0.03    0.05
  -3   3  11    0.17    0.09
  -3   0  11    0.05    0.05
   0  -3  11    0.02    0.05
   0   3  11    0.56    0.14
  -3   3  11    0.00    0.05
   0  -3  11    0.36    0.11
   0  -3  11    0.39    0.12
  -3   0  11    0.04    0.07
   0  -3  11    0.07    0.06
   3   0  11    0.06    0.04
  -3   3  11    0.51    0.14
  -3   3  11    0.06    0.08
   0   3  11    0.05    0.06
   3   0  11    0.06    0.04
  -3   0  11    0.07    0.06
   3  -3  11    0.04    0.05
   3   0  11    0.32    0.11
  -3   0  11    0.23    0.10
  -3   3  11    0.22    0.08
   3  -3  11    0.08    0.07
  -3   3  11    0.28    0.09
   0   3  11    0.22    0.08
   3   0  11    0.21    0.08
   3  -3  11    0.07    0.05
   3  -4 -11    6.29    0.43
   4  -1 -11    7.05    0.42
  -1  -3 -11    6.27    0.48
   4  -1 -11    6.16    0.41
  -1  -3 -11    6.62    0.45
   1   3 -11    7.58    0.46
  -1  -3 -11    5.82    0.41
  -3   4 -11    6.68    0.43
  -3   4 -11    5.33    0.47
   3  -4 -11    6.70    0.43
  -3   4  11    5.91    0.46
   3  -4  11    6.37    0.47
  -1  -3  11    5.78    0.42
   4  -1  11    5.80    0.38
  -1  -3  11    5.68    0.42
   3  -4  11    6.61    0.47
   1   3  11    5.96    0.44
   3  -4  11    6.34    0.42
  -1  -3  11    6.37    0.42
  -4   1  11    6.36    0.55
  -3   4  11    6.23    0.54
   4  -1  11    6.40    0.44
  -4   1  11    6.17    0.40
  -1  -3  11    6.90    0.44
  -3   4  11    5.88    0.40
   4  -1  11    6.45    0.42
  -3   4  11    6.10    0.46
   1   3  11    5.78    0.40
  -4   1  11    4.74    0.41
   3  -4  11    5.90    0.41
  -1  -3  11    4.54    0.42
   3  -4  11    6.34    0.42
   4  -1  11    6.07    0.38
   1   3  11    5.71    0.45
  -3   4  11    6.13    0.42
   4  -2 -11   45.89    2.13
  -2   4 -11   41.38    2.27
   2  -4 -11   46.39    2.14
  -2  -2 -11   49.59    2.29
   4  -2 -11   45.65    2.12
   2   2 -11   47.61    2.18
   2  -4 -11   47.59    2.16
  -4   2 -11   46.07    2.30
  -2   4 -11   48.91    2.18
   4  -2  11   44.60    2.13
   2   2  11   43.29    2.16
   2   2  11   36.84    2.07
  -4   2  11   47.43    2.06
  -4   2  11   47.42    2.11
  -4   2  11   46.90    2.14
   2  -4  11   42.78    2.15
  -2   4  11   43.16    2.13
   2  -4  11   47.68    2.12
   2  -4  11   46.26    2.17
  -2  -2  11   46.66    2.10
  -2   4  11   43.73    2.16
  -2   4  11   46.11    2.22
   4  -2  11   40.88    2.11
  -2  -2  11   45.26    2.12
   2  -4  11   49.65    2.12
   2   2  11   42.99    2.16
  -2  -2  11   41.17    2.10
  -2  -2  11   46.74    2.18
  -2  -2  11   48.67    2.36
  -4   2  11   43.41    2.33
   2  -4  11   47.84    2.11
  -2  -2  11   47.78    2.12
  -4   2  11   45.96    2.04
  -2   4  11   42.11    2.07
  -4   3 -11    6.73    0.51
  -4   3 -11    6.73    0.41
  -3  -1 -11    6.55    0.52
   3   1 -11    4.53    0.38
   4  -3 -11    5.47    0.40
   1  -4 -11    6.35    0.40
  -3  -1 -11    6.22    0.39
   4  -3 -11    4.71    0.40
  -3  -1 -11    6.58    0.40
  -1   4 -11    6.18    0.42
   1  -4 -11    6.19    0.41
   1  -4  11    6.08    0.41
   1  -4  11    5.54    0.43
   1  -4  11    6.66    0.43
   4  -3  11    6.05    0.39
  -1   4  11    5.67    0.38
   1  -4  11    5.94    0.41
   3   1  11    4.14    0.40
  -3  -1  11    5.50    0.38
  -3  -1  11    6.47    0.55
  -1   4  11    5.43    0.42
   3   1  11    5.59    0.37
  -4   3  11    5.74    0.39
  -4   3  11    5.97    0.41
  -4   3  11    6.37    0.44
   3   1  11    5.30    0.37
  -4   3  11    6.05    0.44
  -4   3  11    5.53    0.38
   4  -3  11    5.92    0.39
  -3  -1  11    5.99    0.43
  -3  -1  11    5.58    0.44
  -3  -1  11    5.38    0.40
   4  -3  11    5.09    0.42
  -1   4  11    5.79    0.45
   4  -4 -11    5.19    0.40
   0  -4 -11    5.67    0.42
   0  -4 -11    5.55    0.40
  -4   4 -11    6.12    0.39
  -4   0 -11    5.01    0.48
  -4   4 -11    5.81    0.48
   0   4 -11    6.21    0.42
   0  -4 -11    5.78    0.39
   4  -4 -11    5.52    0.41
  -4   4  11    5.69    0.40
  -4   4  11    5.06    0.54
   4  -4  11    5.66    0.42
   0  -4  11    5.67    0.40
   4  -4  11    4.85    0.42
   4   0  11    5.31    0.38
   0  -4  11    5.12    0.38
  -4   0  11    5.38    0.50
   4  -4  11    5.76    0.38
   0   4  11    5.01    0.36
  -4   4  11    5.03    0.39
  -4   0  11    4.41    0.40
  -4   4  11    5.30    0.41
  -4   0  11    5.34    0.51
   4   0  11    5.60    0.34
   4  -4  11    5.57    0.37
   4  -4  11    5.29    0.37
   0  -4  11    6.22    0.40
  -4   4  11    4.40    0.37
   0  -4  11    5.07    0.41
   0   4  11    4.92    0.39
  -4   0  11    3.59    0.36
   0   4  11    5.01    0.41
   4   0  11    4.83    0.40
   4  -5 -11   36.05    1.77
  -1  -4 -11   38.02    1.87
  -1  -4 -11   35.65    1.75
  -1  -4 -11   37.31    1.78
   1   4 -11   39.66    1.80
   4  -5 -11   38.51    1.78
  -5   1 -11   34.13    1.94
  -4   5 -11   37.70    1.77
  -4   5 -11   37.26    1.90
  -4   5  11   36.28    1.71
   1   4  11   33.63    1.72
  -1  -4  11   36.13    1.71
  -1  -4  11   36.66    1.70
   1   4  11   35.40    1.67
  -1  -4  11   34.90    1.70
  -1  -4  11   34.38    1.76
   1   4  11   35.20    1.75
  -4   5  11   33.64    1.75
   4  -5  11   34.37    1.68
   4  -5  11   35.84    1.77
   4  -5  11   37.01    1.69
  -1  -4  11   35.39    1.74
  -5   1  11   36.22    1.95
  -4   5  11   34.37    1.69
   4  -5  11   34.88    1.67
  -4   5  11   35.77    1.94
  -4   5  11   33.31    1.75
   3  -5 -11    6.03    0.42
  -3   5 -11    6.03    0.53
  -3   5 -11    6.05    0.43
   2   3 -11    6.29    0.43
  -2  -3 -11    6.20    0.42
   3  -5 -11    5.87    0.41
  -2  -3 -11    6.66    0.52
  -2  -3 -11    6.12    0.44
  -2  -3  11    5.96    0.41
   3  -5  11    5.45    0.40
  -5   2  11    5.63    0.56
  -3   5  11    5.72    0.51
   3  -5  11    5.41    0.40
  -3   5  11    5.48    0.43
  -5   2  11    5.00    0.44
  -3   5  11    5.03    0.38
   2   3  11    5.70    0.44
  -3   5  11    5.20    0.44
   3  -5  11    6.04    0.41
  -2  -3  11    6.11    0.42
   2   3  11    5.67    0.44
   5  -2  11    6.10    0.42
   3  -5  11    5.45    0.44
  -2  -3  11    5.99    0.40
   2   3  11    5.82    0.40
  -2  -3  11    5.97    0.44
  -5   3 -11    5.73    0.51
   2  -5 -11    5.82    0.41
  -2   5 -11    5.87    0.42
   2  -5 -11    5.79    0.40
   3   2 -11    6.00    0.41
  -3  -2 -11    6.06    0.51
   5  -3 -11    5.52    0.38
   5  -3 -11    5.63    0.38
   2  -5  11    6.15    0.42
  -2   5  11    5.60    0.43
   3   2  11    5.42    0.45
  -5   3  11    5.23    0.58
   3   2  11    5.42    0.43
  -2   5  11    5.19    0.44
  -2   5  11    5.31    0.47
  -3  -2  11    6.40    0.46
  -3  -2  11    5.74    0.59
  -3  -2  11    6.12    0.41
  -5   3  11    5.61    0.45
  -2   5  11    5.13    0.38
   5  -3  11    5.55    0.45
   2  -5  11    5.53    0.40
  -3  -2  11    5.97    0.39
   2  -5  11    5.28    0.43
  -3  -2  11    5.93    0.40
   2  -5  11    5.48    0.40
   5  -3  11    6.14    0.53
   1  -5 -11   34.61    1.71
  -4  -1 -11   37.54    1.89
  -1   5 -11   37.10    1.74
   4   1 -11   37.09    1.70
   5  -4 -11   29.02    1.69
   1  -5 -11   36.75    1.70
  -5   4 -11   38.62    1.88
   1  -5  11   32.75    1.69
  -1   5  11   34.26    1.72
  -4  -1  11   32.86    1.72
   1  -5  11   36.04    1.66
  -1   5  11   32.38    1.67
   5  -4  11   34.94    1.61
   1  -5  11   35.42    1.66
   4   1  11   30.17    1.67
  -5   4  11   36.83    1.70
   1  -5  11   34.89    1.66
   5  -4  11   30.82    1.73
   5  -4  11   34.92    1.60
  -5   4  11   35.29    1.70
  -1   5  11   32.41    1.62
  -4  -1  11   36.65    1.95
  -5   0 -11    5.23    0.51
   5  -5 -11    5.10    0.40
   5  -5 -11    4.34    0.38
   0   5 -11    5.41    0.41
   0  -5 -11    5.04    0.38
   0  -5 -11    5.30    0.39
  -5   5 -11    5.55    0.50
   5  -5  11    4.76    0.35
  -5   5  11    4.71    0.40
   5  -5  11    5.07    0.44
   5  -5  11    4.77    0.35
   0   5  11    4.82    0.41
   0   5  11    4.67    0.35
   0   5  11    4.65    0.39
  -5   5  11    4.39    0.37
   0  -5  11    4.87    0.38
  -5   5  11    5.11    0.41
   0  -5  11    4.76    0.37
  -5   5  11    4.42    0.38
  -5   5  11    5.09    0.58
  -5   0  11    3.47    0.39
   0  -5  11    5.67    0.40
  -5   0  11    4.97    0.54
   0  -5  11    4.75    0.41
   4  -6 -11    4.46    0.36
   2   4 -11    4.63    0.37
  -4   6 -11    4.67    0.37
  -6   2 -11    3.89    0.47
  -2  -4 -11    4.53    0.35
  -2  -4 -11    4.73    0.38
  -2  -4 -11    4.96    0.46
  -4   6 -11    4.78    0.47
   4  -6 -11    4.60    0.36
   2   4  11    3.78    0.36
  -4   6  11    4.51    0.34
   2   4  11    4.11    0.33
   4  -6  11    3.93    0.33
   4  -6  11    4.13    0.34
   4  -6  11    4.03    0.38
  -4   6  11    3.71    0.36
  -2  -4  11    4.68    0.36
  -2  -4  11    4.11    0.34
   4  -6  11    4.39    0.35
  -4   6  11    3.50    0.44
  -2  -4  11    4.32    0.34
  -2  -4  11    4.73    0.39
   2   4  11    4.33    0.37
  -6   2  11    3.84    0.40
  -4   6  11    4.08    0.39
  -6   2  11    4.54    0.51
  -3   6 -11    0.03    0.12
  -6   3 -11    0.21    0.15
   3  -6 -11    0.03    0.06
   3  -6 -11    0.08    0.07
  -3   6 -11    0.05    0.07
  -3  -3 -11    0.55    0.19
   3   3 -11    0.03    0.06
  -6   3  11    0.05    0.07
   3  -6  11    0.01    0.07
   3   3  11    0.29    0.12
  -3   6  11    0.05    0.06
  -3   6  11    0.00    0.06
  -6   3  11    0.07    0.11
   3  -6  11    0.14    0.09
  -3  -3  11    0.01    0.07
   3  -6  11    0.28    0.11
   3   3  11    0.04    0.07
  -3   6  11    0.15    0.10
  -3   6  11    0.03    0.06
  -3  -3  11    0.12    0.08
   3  -6  11    0.02    0.06
  -4  -2 -11    4.65    0.47
  -2   6 -11    4.33    0.37
   2  -6 -11    4.76    0.37
  -6   4 -11    4.20    0.46
   2  -6 -11    4.10    0.35
  -4  -2  11    4.08    0.39
   6  -4  11    3.51    0.37
   2  -6  11    4.39    0.36
  -2   6  11    4.23    0.37
  -2   6  11    4.27    0.40
   2  -6  11    3.86    0.37
  -6   4  11    4.23    0.39
  -6   4  11    3.04    0.48
   2  -6  11    4.44    0.36
  -2   6  11    3.83    0.40
  -2   6  11    4.13    0.33
   2  -6  11    4.25    0.35
   0   0 -12   44.00    2.06
   0   0 -12   49.05    2.12
   0   0 -12   42.75    2.06
   0   0  12   41.87    1.99
   0   0  12   43.78    1.94
   0   0  12   42.18    1.94
   0   0  12   43.43    2.01
   0   0  12   41.29    1.94
  -1   0 -12    0.62    0.11
   0  -1 -12    0.55    0.12
  -1   0 -12    0.81    0.14
   1   0 -12    0.57    0.12
   1  -1 -12    0.78    0.14
   0   1 -12    0.82    0.15
  -1   1 -12    0.53    0.11
   1  -1 -12    0.69    0.13
  -1   1 -12    0.85    0.15
   0  -1 -12    0.58    0.14
   0   1 -12    0.65    0.14
   1   0 -12    0.66    0.12
   1   0 -12    0.92    0.14
   0  -1 -12    0.74    0.14
   1  -1 -12    0.53    0.11
  -1   0 -12    0.80    0.17
  -1   1 -12    0.89    0.17
   0   1 -12    0.66    0.14
   0  -1  12    0.74    0.16
  -1   1  12    0.69    0.14
   0  -1  12    0.83    0.17
  -1   1  12    0.70    0.13
   1  -1  12    0.68    0.13
   1  -1  12    0.78    0.15
  -1   0  12    0.66    0.12
  -1   0  12    0.73    0.13
  -1   1  12    0.83    0.18
  -1   1  12    0.63    0.12
   1  -1  12    0.83    0.14
   0  -1  12    0.88    0.15
  -1   1  12    0.70    0.17
   0   1  12    0.73    0.16
   0   1  12    0.59    0.15
   0   1  12    1.07    0.15
   0   1  12    0.50    0.11
  -1   0  12    0.78    0.13
   1  -1  12    0.58    0.14
   0  -1  12    0.71    0.14
   0  -1  12    0.64    0.15
   1   0  12    0.72    0.12
   0  -1  12    0.58    0.12
  -1   0  12    0.72    0.15
   1   0  12    0.67    0.14
  -1   1  12    0.97    0.16
  -1   0  12    0.66    0.15
   1   0  12    0.62    0.14
   1   0  12    0.70    0.12
  -1   0  12    0.70    0.16
   0   1  12    0.53    0.11
   1   0  12    0.66    0.12
  -1  -1 -12  298.48   14.19
   1   1 -12  349.96   14.15
  -2   1 -12  347.93   14.11
  -2   1 -12  351.92   14.20
   2  -1 -12  338.29   14.10
   1   1 -12  307.46   14.16
  -1   2 -12  282.38   14.11
   2  -1 -12  328.74   14.09
  -1  -1 -12  325.77   14.12
   1   1 -12  356.27   14.15
  -2   1 -12  341.97   14.12
  -1   2 -12  320.21   14.16
  -1  -1 -12  324.72   14.10
   2  -1  12  332.69   13.61
   2  -1  12  332.19   13.61
   1   1  12  310.61   13.62
  -2   1  12  323.20   13.77
   1   1  12  343.30   13.74
  -1  -1  12  328.68   13.65
  -2   1  12  330.38   13.71
  -2   1  12  347.50   13.68
  -2   1  12  314.64   13.59
  -1  -1  12  309.61   13.65
   1  -2  12  288.81   13.64
   1   1  12  308.72   13.62
  -2   1  12  320.79   13.66
   1  -2  12  311.58   13.73
   1  -2  12  269.10   13.69
   2  -1  12  329.20   13.66
   2  -1  12  315.38   13.66
  -2   1  12  315.05   13.60
  -1  -1  12  339.76   13.67
  -1  -1  12  327.43   13.75
  -1  -1  12  329.52   13.74
  -1  -1  12  309.65   13.62
   1  -2  12  280.14   13.64
   1   1  12  297.24   13.69
   2  -2 -12    0.40    0.11
   0  -2 -12    0.40    0.13
  -2   2 -12    0.26    0.10
   0   2 -12    0.25    0.10
  -2   0 -12    0.49    0.15
  -2   0 -12    0.39    0.10
  -2   0 -12    0.47    0.10
  -2   2 -12    0.53    0.13
  -2   2 -12    0.59    0.15
   0  -2 -12    0.26    0.10
   2  -2 -12    0.51    0.13
   2   0 -12    0.58    0.12
   0   2 -12    0.44    0.14
   2   0 -12    0.49    0.12
   0  -2 -12    0.34    0.12
   2   0 -12    0.55    0.12
   0  -2  12    0.33    0.12
   0   2  12    0.45    0.13
   2   0  12    0.53    0.14
  -2   2  12    0.73    0.16
  -2   0  12    0.60    0.14
  -2   0  12    0.49    0.12
  -2   0  12    0.75    0.14
   0  -2  12    0.58    0.14
   2   0  12    0.83    0.13
   2  -2  12    0.57    0.15
   2  -2  12    0.50    0.12
   2   0  12    0.62    0.12
  -2   2  12    0.55    0.13
  -2   2  12    0.38    0.13
  -2   0  12    0.59    0.12
  -2   2  12    0.56    0.12
   0   2  12    0.37    0.13
   0  -2  12    0.53    0.14
  -2   2  12    0.46    0.16
   2   0  12    0.57    0.13
   0   2  12    0.26    0.10
   0   2  12    0.39    0.13
   2  -2  12    0.46    0.12
   2  -2  12    0.42    0.14
  -2   0  12    0.57    0.16
  -2   0  12    0.49    0.11
  -2   2  12    0.39    0.11
   0  -2  12    0.31    0.11
   2  -3 -12    0.48    0.13
   1   2 -12    0.13    0.08
  -1  -2 -12    0.36    0.14
   3  -1 -12    0.47    0.11
  -2   3 -12    0.44    0.13
  -2   3 -12    0.33    0.11
  -3   1 -12    0.59    0.13
   3  -1 -12    0.61    0.12
  -1  -2 -12    0.43    0.12
  -1  -2 -12    0.28    0.11
   2  -3 -12    0.38    0.12
  -3   1 -12    0.55    0.16
  -3   1 -12    0.57    0.12
  -2   3  12    0.38    0.14
   2  -3  12    0.32    0.11
  -2   3  12    0.62    0.14
  -3   1  12    0.65    0.15
  -3   1  12    0.69    0.12
  -1  -2  12    0.35    0.11
  -3   1  12    0.56    0.12
   3  -1  12    0.59    0.12
   3  -1  12    0.55    0.13
   3  -1  12    0.54    0.14
   3  -1  12    0.49    0.11
  -2   3  12    0.45    0.13
  -2   3  12    0.52    0.18
   1   2  12    0.35    0.12
  -3   1  12    0.37    0.11
  -3   1  12    0.49    0.14
   2  -3  12    0.46    0.15
  -1  -2  12    0.44    0.11
   1   2  12    0.31    0.12
  -2   3  12    0.38    0.12
   1   2  12    0.39    0.14
  -3   1  12    0.57    0.17
   2  -3  12    0.45    0.13
  -2   3  12    0.36    0.13
  -1  -2  12    0.17    0.09
  -1  -2  12    0.34    0.13
  -1  -2  12    0.46    0.13
   1   2  12    0.30    0.10
   2  -3  12    0.32    0.12
   2   1 -12    0.54    0.14
  -1   3 -12    0.38    0.14
   1  -3 -12    0.49    0.13
   3  -2 -12    0.46    0.12
  -3   2 -12    0.45    0.12
   1  -3 -12    0.32    0.11
  -2  -1 -12    0.26    0.13
  -2  -1 -12    0.40    0.11
   3  -2 -12    0.54    0.12
   2   1 -12    0.43    0.12
  -1   3 -12    0.37    0.12
  -3   2 -12    0.44    0.14
  -2  -1 -12    0.68    0.13
  -2  -1  12    0.49    0.12
   3  -2  12    0.37    0.12
   1  -3  12    0.40    0.14
  -2  -1  12    0.55    0.14
  -3   2  12    0.74    0.13
  -2  -1  12    0.49    0.16
  -2  -1  12    0.46    0.12
  -3   2  12    0.45    0.17
  -3   2  12    0.68    0.14
  -1   3  12    0.39    0.13
  -3   2  12    0.40    0.12
  -2  -1  12    0.24    0.10
   1  -3  12    0.30    0.11
   3  -2  12    0.50    0.12
   1  -3  12    0.42    0.15
   1  -3  12    0.43    0.12
   2   1  12    0.48    0.11
   3  -2  12    0.49    0.13
   2   1  12    0.46    0.14
   3  -2  12    0.53    0.12
  -3   2  12    0.65    0.13
  -2  -1  12    0.48    0.12
  -1   3  12    0.37    0.13
  -1   3  12    0.48    0.16
  -3   2  12    0.38    0.13
   2   1  12    0.59    0.12
   2   1  12    0.41    0.13
  -1   3  12    0.58    0.14
   3   0 -12   33.95    1.51
   0  -3 -12   31.52    1.55
   0  -3 -12   30.65    1.54
   0  -3 -12   31.44    1.52
   3   0 -12   34.47    1.51
  -3   0 -12   33.39    1.48
  -3   0 -12   33.42    1.46
  -3   0 -12   25.29    1.58
  -3   3 -12   31.24    1.57
  -3   3 -12   26.57    1.49
   0   3 -12   27.92    1.52
   3   0  12   30.14    1.43
   0   3  12   30.29    1.49
   0   3  12   35.11    1.59
   0   3  12   29.62    1.58
  -3   0  12   27.87    1.53
  -3   0  12   30.72    1.47
   0  -3  12   29.81    1.59
  -3   3  12   27.74    1.54
   0  -3  12   29.39    1.52
  -3   3  12   26.96    1.49
   3   0  12   31.35    1.49
  -3   0  12   30.93    1.64
   3   0  12   30.58    1.43
  -3   3  12   27.67    1.49
  -3   0  12   33.14    1.51
   3  -3  12   24.70    1.46
   0  -3  12   29.49    1.51
  -3   0  12   33.42    1.54
  -3   0  12   33.71    1.50
   0   3  12   33.74    1.54
   3   0  12   33.47    1.55
   4  -1 -12    0.65    0.14
   3  -4 -12    0.48    0.14
   1   3 -12    0.80    0.17
  -3   4 -12    0.47    0.15
  -1  -3 -12    0.65    0.19
   4  -1 -12    0.50    0.12
  -1  -3 -12    0.48    0.13
   3  -4 -12    0.42    0.13
  -1  -3 -12    0.59    0.16
  -4   1 -12    0.36    0.15
  -3   4 -12    0.61    0.14
   3  -4  12    0.47    0.13
  -1  -3  12    0.63    0.15
   1   3  12    0.44    0.13
   4  -1  12    0.53    0.13
   3  -4  12    0.45    0.13
  -4   1  12    0.44    0.14
  -4   1  12    0.45    0.14
  -3   4  12    0.60    0.16
  -1  -3  12    0.48    0.14
  -1  -3  12    0.69    0.19
   4  -1  12    0.69    0.14
  -3   4  12    0.35    0.12
  -3   4  12    0.36    0.17
  -3   4  12    0.38    0.13
  -3   4  12    0.47    0.16
  -3   4  12    0.36    0.11
   3  -4  12    0.61    0.17
   1   3  12    0.48    0.13
  -1  -3  12    0.28    0.11
   1   3  12    0.39    0.13
   1   3  12    0.38    0.14
   4  -1  12    0.71    0.14
   3  -4  12    0.49    0.14
  -1  -3  12    0.21    0.10
  -1  -3  12    0.44    0.13
  -4   1  12    0.56    0.13
  -4   1  12    0.31    0.14
   3  -4  12    0.51    0.16
   4  -1  12    0.66    0.16
   4  -2 -12  257.28   10.98
  -2  -2 -12  243.02   11.15
  -2   4 -12  246.58   11.16
   4  -2 -12  256.52   10.99
  -4   2 -12  271.97   11.19
  -2   4 -12  269.46   11.07
  -2  -2 -12  219.21   11.02
   2  -4 -12  266.53   11.05
   2  -4 -12  266.50   11.03
  -4   2  12  260.35   10.57
  -4   2  12  209.79   10.58
  -2  -2  12  221.04   10.57
   2  -4  12  250.52   10.66
  -2  -2  12  242.95   10.56
  -2   4  12  252.24   10.56
  -4   2  12  254.99   10.49
   4  -2  12  210.32   10.51
  -4   2  12  253.24   10.51
  -2   4  12  251.35   10.67
   2  -4  12  262.84   10.59
   4  -2  12  250.19   10.59
  -2  -2  12  250.15   10.57
  -4   2  12  251.79   10.83
   2  -4  12  268.86   10.61
   2   2  12  206.13   10.61
  -2  -2  12  231.53   10.56
  -2   4  12  251.18   10.72
   2  -4  12  261.25   10.69
   4  -2  12  251.96   10.59
  -2   4  12  239.14   10.63
  -2  -2  12  235.37   10.66
  -3  -1 -12    0.58    0.12
   1  -4 -12    0.42    0.12
   3   1 -12    0.18    0.09
   4  -3 -12    0.40    0.12
   4  -3 -12    0.49    0.13
  -3  -1 -12    0.85    0.15
  -4   3 -12    0.62    0.14
   1  -4 -12    0.63    0.15
  -1   4 -12    0.70    0.16
  -4   3 -12    0.72    0.20
  -3  -1 -12    0.25    0.14
   4  -3  12    0.37    0.12
   4  -3  12    0.45    0.12
   1  -4  12    0.46    0.13
   1  -4  12    0.45    0.14
  -3  -1  12    0.40    0.16
   1  -4  12    0.54    0.14
  -4   3  12    0.42    0.13
   3   1  12    0.60    0.12
   3   1  12    0.43    0.14
   3   1  12    0.30    0.13
  -1   4  12    0.58    0.15
  -3  -1  12    0.31    0.12
  -3  -1  12    0.41    0.13
  -4   3  12    0.58    0.16
  -1   4  12    0.59    0.17
  -4   3  12    0.64    0.13
   1  -4  12    0.49    0.15
   4  -3  12    0.42    0.15
  -3  -1  12    0.55    0.14
  -4   3  12    0.30    0.17
  -4   3  12    0.56    0.14
   3   1  12    0.44    0.11
   4  -3  12    0.18    0.09
  -1   4  12    0.47    0.12
  -4   3  12    0.58    0.13
  -3  -1  12    0.30    0.10
   0  -4 -12    0.43    0.12
   4  -4 -12    0.47    0.14
   4  -4 -12    0.36    0.13
  -4   0 -12    0.33    0.16
   4   0 -12    0.46    0.13
  -4   4 -12    0.34    0.14
  -4   4 -12    0.50    0.13
   0  -4 -12    0.70    0.16
   0   4 -12    0.46    0.14
  -4   0  12    0.29    0.12
   0  -4  12    0.33    0.12
   4  -4  12    0.34    0.14
   4   0  12    0.55    0.13
   0  -4  12    0.53    0.16
   0  -4  12    0.39    0.12
  -4   0  12    0.47    0.18
  -4   4  12    0.49    0.14
   0   4  12    0.46    0.14
   4  -4  12    0.34    0.10
  -4   4  12    0.48    0.14
   0  -4  12    0.56    0.14
  -4   4  12    0.25    0.11
  -4   4  12    0.39    0.14
   4  -4  12    0.57    0.14
   4   0  12    0.63    0.17
   4   0  12    0.59    0.12
  -4   4  12    0.38    0.13
  -4   4  12    0.46    0.20
   4  -4  12    0.78    0.18
   0   4  12    0.56    0.14
   4  -4  12    0.43    0.13
   0   4  12    0.71    0.19
   4  -5 -12  207.91    9.44
   1   4 -12  227.79    9.47
  -1  -4 -12  224.84    9.56
   4  -5 -12  214.84    9.45
  -1  -4 -12  215.51    9.45
  -4   5 -12  208.76    9.55
  -4   5 -12  226.59    9.44
  -1  -4 -12  210.69    9.42
  -1  -4  12  206.51    9.00
  -4   5  12  205.70    8.98
  -5   1  12  203.99    9.23
   4  -5  12  215.66    8.97
  -1  -4  12  212.78    9.00
  -1  -4  12  213.03    8.99
  -4   5  12  202.42    9.04
   1   4  12  192.07    8.93
   1   4  12  195.02    9.00
  -1  -4  12  209.53    8.97
   4  -5  12  218.99    8.97
   1   4  12  208.11    9.05
  -4   5  12  201.41    9.26
  -4   5  12  193.33    8.96
   4  -5  12  204.79    9.06
   4  -5  12  210.36    8.96
  -2  -3 -12    0.44    0.13
  -3   5 -12    0.41    0.16
   3  -5 -12    0.17    0.09
   5  -2 -12    0.25    0.12
  -2  -3 -12    0.36    0.13
  -2  -3 -12    0.41    0.17
  -5   2 -12    0.23    0.14
   3  -5 -12    0.47    0.13
   2   3 -12    0.37    0.13
  -3   5 -12    0.25    0.11
   2   3  12    0.20    0.09
  -5   2  12    0.27    0.15
  -2  -3  12    0.45    0.13
   2   3  12    0.32    0.13
  -5   2  12    0.13    0.10
   3  -5  12    0.26    0.10
   5  -2  12    0.26    0.11
  -3   5  12    0.43    0.15
  -3   5  12    0.25    0.11
  -3   5  12    0.21    0.09
   3  -5  12    0.28    0.10
   3  -5  12    0.45    0.13
   3  -5  12    0.21    0.11
  -2  -3  12    0.40    0.13
  -2  -3  12    0.38    0.13
   2   3  12    0.38    0.14
  -2  -3  12    0.23    0.10
   2   3  12    0.35    0.14
  -3   5  12    0.33    0.15
  -5   3 -12    0.18    0.12
  -3  -2 -12    0.39    0.17
   2  -5 -12    0.23    0.10
   5  -3 -12    0.37    0.11
   5  -3 -12    0.25    0.09
  -2   5 -12    0.33    0.13
  -2   5 -12    0.23    0.15
   2  -5 -12    0.40    0.12
   3   2 -12    0.37    0.12
  -5   3  12    0.40    0.20
   3   2  12    0.19    0.09
  -3  -2  12    0.15    0.09
   5  -3  12    0.36    0.14
   3   2  12    0.25    0.11
   2  -5  12    0.36    0.14
  -3  -2  12    0.40    0.12
   2  -5  12    0.29    0.11
   2  -5  12    0.35    0.12
   5  -3  12    0.38    0.14
   2  -5  12    0.24    0.10
  -5   3  12    0.31    0.13
  -3  -2  12    0.32    0.12
   3   2  12    0.27    0.12
  -3  -2  12    0.35    0.12
  -2   5  12    0.41    0.16
  -2   5  12    0.28    0.12
  -2   5  12    0.32    0.14
   3   2  12    0.19    0.11
  -2   5  12    0.29    0.10
   1  -5 -12  199.05    8.69
   5  -4 -12  199.50    8.68
   5  -4 -12  172.50    8.68
  -1   5 -12  218.81    8.74
   4   1 -12  187.67    8.67
  -4  -1 -12  192.41    8.88
   1  -5 -12  209.96    8.68
  -5   4 -12  216.78    8.87
   1  -5  12  195.76    8.97
  -5   4  12  214.58    8.97
   4   1  12  199.17    8.94
   1  -5  12  212.68    8.94
  -4  -1  12  215.01    9.22
  -1   5  12  209.21    9.01
  -4  -1  12  202.54    8.97
   5  -4  12  204.85    8.86
  -1   5  12  200.75    8.87
  -1   5  12  192.71    8.94
  -5   4  12  194.39    8.95
   1  -5  12  208.11    8.93
   5  -4  12  200.62    8.85
   1  -5  12  211.01    8.93
  -5   0 -12    0.24    0.15
   5  -5 -12    0.27    0.12
  -5   5 -12    0.49    0.17
   5  -5 -12    0.21    0.11
   0   5 -12    0.41    0.14
   0  -5 -12    0.18    0.10
   0  -5 -12    0.33    0.12
   0   5  12    0.20    0.10
  -5   5  12    0.11    0.09
  -5   0  12    0.29    0.14
   0  -5  12    0.12    0.10
   0  -5  12    0.08    0.09
   0   5  12    0.33    0.13
   0   5  12    0.18    0.09
  -5   5  12    0.18    0.10
  -5   5  12    0.42    0.14
  -5   5  12    0.27    0.12
   5  -5  12    0.29    0.10
   5  -5  12    0.42    0.16
   0  -5  12    0.20    0.10
  -5   0  12    0.34    0.18
  -5   5  12    0.37    0.21
   0  -5  12    0.22    0.10
   5  -5  12    0.17    0.08
   0   0 -13    0.07    0.05
   0   0 -13    0.15    0.08
   0   0 -13    0.06    0.05
   0   0  13    0.06    0.05
   0   0  13    0.14    0.07
   0   0  13    0.04    0.05
   0   0  13    0.08    0.05
   0   0  13    0.12    0.05
   0  -1 -13    0.06    0.06
   1   0 -13    0.06    0.05
   0  -1 -13    0.08    0.06
   0   1 -13    0.05    0.06
   1   0 -13    0.15    0.07
   0  -1 -13    0.07    0.07
   0   1 -13    0.08    0.07
  -1   1 -13    0.02    0.05
  -1   0 -13    0.08    0.05
   0   1 -13    0.08    0.06
  -1   0 -13    0.04    0.06
   1   0 -13    0.06    0.05
  -1   1 -13    0.08    0.06
  -1   1 -13    0.01    0.05
   1  -1 -13    0.08    0.06
  -1   0 -13    0.05    0.05
   1  -1 -13    0.12    0.07
   1  -1 -13    0.07    0.06
   1  -1  13    0.08    0.05
  -1   1  13    0.06    0.05
  -1   1  13    0.11    0.06
  -1   0  13    0.05    0.06
  -1   0  13    0.11    0.06
   1   0  13    0.09    0.05
   0  -1  13    0.02    0.05
   1   0  13    0.14    0.07
   1   0  13    0.04    0.06
  -1   0  13    0.10    0.06
   1  -1  13    0.05    0.05
   1  -1  13    0.09    0.07
  -1   0  13    0.05    0.06
  -1   0  13    0.08    0.06
  -1   0  13    0.05    0.05
  -1   1  13    0.02    0.05
  -1   1  13    0.03    0.05
   1   0  13    0.07    0.05
   0  -1  13    0.08    0.05
   0   1  13    0.08    0.05
   0   1  13    0.08    0.05
   0  -1  13    0.08    0.06
   0   1  13    0.31    0.11
  -1   1  13    0.12    0.08
   0   1  13    0.10    0.06
   1  -1  13    0.06    0.06
   0  -1  13    0.02    0.05
  -1   1  13   -0.01    0.03
   1  -1  13    0.02    0.04
   0   1  13    0.02    0.04
   0  -1  13    0.02    0.04
   1   0  13    0.05    0.04
  -1  -1 -13    5.05    0.36
   1  -2 -13    4.77    0.38
  -1  -1 -13    5.27    0.37
   1  -2 -13    4.66    0.39
   1   1 -13    6.23    0.40
  -1   2 -13    5.38    0.41
  -2   1 -13    5.28    0.36
  -2   1 -13    5.23    0.37
   1   1 -13    5.24    0.38
   2  -1 -13    5.36    0.36
   2  -1 -13    4.99    0.35
  -1  -1 -13    5.34    0.43
  -1   2 -13    4.89    0.38
  -2   1 -13    4.94    0.40
   1   1 -13    5.20    0.40
   1   1  13    4.94    0.35
  -1  -1  13    4.82    0.37
   1   1  13    5.00    0.41
  -1  -1  13    5.75    0.38
  -2   1  13    5.09    0.44
   2  -1  13    5.09    0.39
  -1  -1  13    4.80    0.35
   1  -2  13    5.17    0.38
  -2   1  13    4.56    0.34
   2  -1  13    4.94    0.34
  -2   1  13    5.47    0.39
   1  -2  13    5.48    0.39
  -2   1  13    4.90    0.34
   1   1  13    5.04    0.41
  -1  -1  13    5.58    0.39
  -2   1  13    4.72    0.37
  -1  -1  13    5.34    0.44
  -1  -1  13    4.97    0.42
  -1   2  13    4.91    0.44
   1  -2  13    5.04    0.42
  -1   2  13    4.42    0.36
   2  -1  13    5.21    0.38
  -1   2  13    4.59    0.41
  -1   2  13    5.01    0.36
  -1   2  13    4.79    0.37
   1   1  13    4.96    0.35
   2  -1  13    4.93    0.34
  -2   1  13    5.45    0.41
   1  -2  13    5.59    0.44
   2  -2 -13    0.28    0.11
  -2   0 -13    0.06    0.05
  -2   2 -13   -0.01    0.05
  -2   2 -13    0.02    0.06
  -2   2 -13    0.06    0.06
  -2   0 -13    0.08    0.06
   0   2 -13    0.02    0.05
   2   0 -13    0.09    0.06
   0  -2 -13    0.07    0.07
   0  -2 -13    0.06    0.07
   2   0 -13    0.04    0.06
  -2   0 -13    0.11    0.09
   2  -2 -13    0.09    0.06
   0  -2 -13    0.04    0.06
   0   2 -13    0.09    0.09
  -2   0  13    0.18    0.10
   2  -2  13    0.00    0.05
   0   2  13    0.12    0.08
  -2   0  13    0.06    0.06
   2  -2  13    0.14    0.08
   0  -2  13    0.08    0.09
   2  -2  13    0.05    0.06
   0   2  13   -0.01    0.05
  -2   0  13    0.05    0.05
   2  -2  13    0.05    0.06
   2   0  13    0.17    0.07
   2   0  13    0.10    0.07
   2   0  13    0.09    0.07
  -2   0  13    0.08    0.05
   0  -2  13    0.06    0.06
   0   2  13    0.04    0.06
   0  -2  13    0.06    0.06
   0  -2  13    0.08    0.06
   0  -2  13    0.03    0.05
   2   0  13    0.13    0.06
  -2   2  13    0.01    0.06
  -2   2  13    0.06    0.06
  -2   0  13    0.14    0.07
  -2   0  13    0.14    0.07
  -2   2  13    0.05    0.05
  -2   2  13    0.07    0.09
  -2   2  13    0.09    0.06
  -2   2  13    0.06    0.07
   0   2  13    0.09    0.07
  -1  -2 -13    0.05    0.07
   2  -3 -13   -0.06    0.05
   3  -1 -13    0.06    0.05
  -1  -2 -13    0.04    0.06
  -3   1 -13    0.11    0.07
  -3   1 -13    0.13    0.07
   1   2 -13    0.14    0.09
   2  -3 -13    0.00    0.07
  -2   3 -13    0.08    0.07
  -2   3 -13   -0.01    0.06
   3  -1 -13    0.04    0.05
  -1  -2 -13    0.07    0.09
  -3   1 -13    0.09    0.08
   1   2  13    0.07    0.07
   2  -3  13   -0.05    0.05
  -1  -2  13    0.06    0.06
  -2   3  13   -0.07    0.07
   2  -3  13    0.05    0.07
  -1  -2  13    0.05    0.07
  -3   1  13    0.02    0.06
  -3   1  13    0.04    0.05
   1   2  13    0.06    0.08
  -2   3  13    0.10    0.08
  -2   3  13   -0.02    0.05
   3  -1  13    0.03    0.05
   3  -1  13    0.00    0.04
  -2   3  13    0.07    0.07
   3  -1  13    0.09    0.07
  -2   3  13    0.11    0.08
  -1  -2  13    0.08    0.07
  -3   1  13    0.05    0.06
  -3   1  13    0.04    0.06
  -3   1  13    0.04    0.04
   1   2  13    0.02    0.06
   2  -3  13    0.02    0.05
   1   2  13    0.05    0.08
  -3   1  13    0.13    0.06
   2  -3  13    0.01    0.06
  -1  -2  13    0.06    0.06
   3  -1  13    0.04    0.05
  -1  -2  13    0.01    0.06
  -2   3  13    0.05    0.08
   2   1 -13    0.44    0.13
  -3   2 -13    0.01    0.06
  -3   2 -13    0.05    0.06
  -2  -1 -13    0.17    0.08
   1  -3 -13    0.05    0.07
  -2  -1 -13   -0.04    0.07
   2   1 -13    0.10    0.08
  -1   3 -13    0.00    0.07
   3  -2 -13    0.11    0.07
  -2  -1 -13    0.03    0.06
   3  -2 -13    0.06    0.06
   1  -3 -13    0.13    0.09
  -1   3 -13    0.04    0.07
  -2  -1  13    0.02    0.06
  -2  -1  13    0.01    0.05
   1  -3  13    0.06    0.06
  -1   3  13    0.06    0.07
   1  -3  13    0.01    0.05
   2   1  13    0.05    0.07
  -3   2  13    0.00    0.07
  -2  -1  13    0.05    0.07
   1  -3  13    0.05    0.07
   3  -2  13    0.03    0.05
  -2  -1  13    0.04    0.06
  -2  -1  13    0.10    0.07
   2   1  13    0.04    0.07
   3  -2  13    0.23    0.10
  -3   2  13    0.06    0.06
  -3   2  13    0.04    0.07
   2   1  13    0.02    0.04
  -3   2  13    0.04    0.04
  -2  -1  13    0.03    0.05
  -3   2  13    0.12    0.07
  -1   3  13    0.01    0.06
   1  -3  13   -0.03    0.05
   3  -2  13    0.10    0.07
  -3   2  13    0.09    0.07
  -1   3  13   -0.01    0.06
   3  -2  13    0.04    0.05
   2   1  13    0.09    0.07
  -1   3  13    0.02    0.06
   3  -3 -13    0.03    0.06
  -3   3 -13    0.01    0.07
  -3   0 -13    0.06    0.06
   0   3 -13    0.04    0.06
  -3   0 -13    0.05    0.05
  -3   3 -13    0.00    0.07
   0  -3 -13    0.05    0.08
  -3   0 -13   -0.02    0.06
   0  -3 -13    0.06    0.08
   3   0 -13    0.02    0.05
   3   0 -13    0.08    0.07
   3  -3 -13    0.48    0.14
   0   3  13    0.11    0.09
  -3   3  13    0.30    0.10
   3  -3  13    0.04    0.07
   0   3  13    0.06    0.06
  -3   0  13    0.12    0.08
   3  -3  13    0.00    0.04
   0  -3  13    0.18    0.11
   0   3  13    0.05    0.07
   3   0  13    0.02    0.05
  -3   0  13    0.15    0.09
  -3   0  13    0.38    0.11
  -3   3  13    0.12    0.08
   0  -3  13    0.11    0.08
   3  -3  13    0.03    0.08
  -3   3  13    0.07    0.10
   0  -3  13   -0.01    0.06
  -3   0  13    0.64    0.14
  -3   0  13    0.01    0.06
   3  -3  13    0.00    0.04
   3   0  13    0.08    0.07
   3   0  13    0.04    0.04
  -3   3  13    0.02    0.05
  -3   0  13    0.01    0.05
   0   3  13    0.05    0.08
   3   0  13    0.03    0.04
  -3   3  13    0.06    0.08
  -3   3  13    0.06    0.08
   0  -3  13    0.01    0.06
   1   3 -13    0.05    0.08
   3  -4 -13    0.13    0.10
  -1  -3 -13    0.07    0.09
   4  -1 -13    0.08    0.07
  -1  -3 -13    0.01    0.08
   3  -4 -13    0.11    0.09
  -4   1 -13    0.02    0.09
  -1  -3 -13    0.19    0.10
  -3   4 -13    0.04    0.09
  -3   4 -13    0.02    0.07
   4  -1 -13    0.09    0.07
  -1  -3  13    0.01    0.07
   1   3  13    0.09    0.08
  -4   1  13    0.02    0.06
   3  -4  13   -0.05    0.05
  -3   4  13    0.12    0.09
   3  -4  13    0.01    0.07
   4  -1  13    0.01    0.06
  -1  -3  13    0.44    0.15
  -3   4  13    0.08    0.09
  -4   1  13    0.00    0.05
   3  -4  13   -0.01    0.06
  -1  -3  13    0.06    0.07
  -1  -3  13   -0.01    0.06
   3  -4  13    0.06    0.08
  -3   4  13    0.05    0.08
  -3   4  13    0.00    0.05
  -3   4  13    0.00    0.07
  -1  -3  13   -0.02    0.06
   3  -4  13    0.07    0.08
  -4   1  13    0.01    0.08
   1   3  13    0.02    0.09
   4  -1  13    0.03    0.05
  -4   1  13    0.04    0.07
   4  -1  13    0.06    0.06
  -3   4  13    0.03    0.06
   1   3  13    0.04    0.08
   1   3  13   -0.02    0.06
   4  -2 -13    3.96    0.30
   2  -4 -13    3.94    0.34
  -4   2 -13    4.12    0.40
  -2   4 -13    4.31    0.41
  -2  -2 -13    3.77    0.33
  -2   4 -13    3.53    0.34
  -2  -2 -13    3.85    0.34
  -2  -2 -13    2.79    0.36
   2  -4 -13    3.85    0.35
   4  -2 -13    3.87    0.30
  -4   2  13    4.47    0.47
  -2   4  13    3.51    0.34
  -4   2  13    3.62    0.28
  -2  -2  13    2.88    0.35
   2  -4  13    3.82    0.35
  -2   4  13    3.39    0.37
  -4   2  13    5.15    0.40
   2  -4  13    3.26    0.32
   2   2  13    3.23    0.31
   4  -2  13    3.29    0.32
   4  -2  13    4.14    0.34
   4  -2  13    3.62    0.30
   2  -4  13    2.99    0.36
   2  -4  13    3.21    0.36
  -2  -2  13    3.93    0.33
   4  -2  13    3.95    0.31
  -2   4  13    3.71    0.33
  -2   4  13    3.59    0.41
  -2   4  13    3.20    0.36
   2   2  13    2.35    0.32
  -4   2  13    2.58    0.31
   2   2  13    3.77    0.33
  -4   2  13    3.58    0.27
  -2  -2  13    2.20    0.33
  -2  -2  13    2.87    0.31
   2  -4  13    3.57    0.34
  -2  -2  13    3.79    0.32
  -4   2  13    4.15    0.33
   4  -3 -13    0.07    0.08
  -3  -1 -13   -0.05    0.06
  -1   4 -13    0.00    0.08
   4  -3 -13    0.03    0.06
   1  -4 -13   -0.04    0.06
   1  -4 -13   -0.06    0.06
  -3  -1 -13    0.10    0.06
  -4   3 -13    0.09    0.09
  -1   4 -13    0.07    0.07
  -3  -1 -13    0.06    0.06
   3   1 -13    0.03    0.06
  -4   3 -13    0.06    0.09
   4  -3  13    0.01    0.06
   4  -3  13   -0.01    0.05
  -1   4  13   -0.01    0.05
   1  -4  13   -0.05    0.05
   4  -3  13    0.03    0.05
   3   1  13    0.05    0.05
  -1   4  13    0.15    0.11
  -3  -1  13    0.08    0.07
  -4   3  13   -0.01    0.08
  -4   3  13   -0.04    0.04
  -3  -1  13    0.04    0.08
   1  -4  13   -0.01    0.05
  -3  -1  13    0.01    0.08
   3   1  13    0.06    0.08
  -4   3  13    0.01    0.04
   1  -4  13    0.01    0.08
  -4   3  13   -0.02    0.06
   4  -3  13    0.13    0.08
  -3  -1  13    0.00    0.07
  -1   4  13   -0.02    0.06
  -4   3  13   -0.01    0.04
   3   1  13    0.00    0.04
   3   1  13    0.05    0.07
   1  -4  13    0.05    0.07
   1  -4  13    0.03    0.07
  -3  -1  13   -0.03    0.06
  -4   3  13    0.04    0.07
  -4   4 -13    0.09    0.08
   0  -4 -13    0.02    0.07
   0  -4 -13   -0.06    0.05
   4  -4 -13    0.23    0.12
   4   0 -13    0.01    0.06
   0   4 -13    0.01    0.07
  -4   4 -13    0.11    0.09
   4  -4 -13    0.02    0.07
  -4   0 -13    0.02    0.11
  -4   0  13    0.02    0.06
  -4   4  13    0.08    0.09
   0  -4  13    0.09    0.09
  -4   4  13    0.02    0.07
   0  -4  13    0.01    0.07
   0  -4  13    0.05    0.08
   4  -4  13    0.00    0.05
  -4   4  13    0.00    0.07
   0   4  13    0.06    0.09
  -4   0  13    0.11    0.10
  -4   4  13    0.05    0.08
   0   4  13    0.08    0.07
   4   0  13    0.06    0.07
   4  -4  13   -0.05    0.05
  -4   4  13   -0.04    0.09
   4  -4  13    0.09    0.08
   0  -4  13    0.03    0.07
   0   4  13    0.00    0.07
   4   0  13    0.07    0.08
   4   0  13   -0.03    0.04
   4  -4  13    0.04    0.06
  -4   4  13    0.11    0.09
   4  -4  13   -0.05    0.06
  -4   5 -13    3.10    0.31
  -5   1 -13    2.71    0.46
  -1  -4 -13    2.98    0.32
  -1  -4 -13    3.43    0.38
   4  -5 -13    2.77    0.31
  -1  -4 -13    3.26    0.31
   4  -5 -13    2.71    0.31
   1   4 -13    3.23    0.33
  -4   5 -13    3.48    0.37
   1   4  13    3.09    0.30
   4  -5  13    3.01    0.30
  -1  -4  13    3.24    0.33
  -5   1  13    3.15    0.41
  -1  -4  13    2.12    0.35
  -1  -4  13    2.96    0.31
  -1  -4  13    2.88    0.32
  -4   5  13    2.87    0.37
   1   4  13    3.25    0.33
   1   4  13    2.87    0.33
  -4   5  13    2.50    0.40
  -4   5  13    2.61    0.30
  -4   5  13    2.94    0.31
   4  -5  13    3.03    0.36
  -5   1  13    2.44    0.35
  -1  -4  13    2.97    0.31
   4  -5  13    3.53    0.32
  -4   5  13    1.91    0.33
  -4   5  13    3.22    0.36
   1   4  13    3.48    0.37
   4  -5  13    3.27    0.32
  -2  -3 -13    0.10    0.08
   5  -2 -13    0.10    0.07
  -2  -3 -13    0.02    0.08
  -3   5 -13    0.09    0.12
   3  -5 -13    0.07    0.07
  -5   2 -13    0.08    0.11
   2   3 -13   -0.01    0.07
   3  -5 -13   -0.01    0.07
  -3   5 -13    0.00    0.06
  -2  -3 -13    0.08    0.12
  -3   5  13    0.08    0.07
  -3   5  13    0.11    0.08
   3  -5  13    0.05    0.07
  -5   2  13    0.00    0.07
   5  -2  13    0.06    0.06
   3  -5  13    0.02    0.07
  -3   5  13    0.03    0.09
  -2  -3  13    0.02    0.07
   2   3  13    0.04    0.08
   2   3  13    0.17    0.11
   2   3  13   -0.01    0.05
   3  -5  13    0.00    0.06
  -5   2  13    0.04    0.08
  -2  -3  13    0.06    0.07
  -2  -3  13    0.03    0.07
  -3   5  13    0.06    0.08
   2   3  13    0.02    0.07
  -2  -3  13    0.03    0.08
   3  -5  13    0.03    0.06
  -2   5 -13    0.10    0.09
   5  -3 -13    0.02    0.06
   2  -5 -13   -0.02    0.06
   2  -5 -13    0.03    0.07
  -2   5 -13    0.18    0.14
   3   2 -13    0.00    0.06
  -3  -2 -13    0.04    0.09
  -5   3 -13    0.11    0.10
   5  -3 -13    0.01    0.06
   2  -5  13    0.00    0.06
   3   2  13    0.04    0.07
   2  -5  13    0.07    0.08
  -5   3  13    0.07    0.12
  -3  -2  13    0.02    0.06
   2  -5  13    0.06    0.08
   2  -5  13    0.00    0.06
   3   2  13    0.03    0.06
  -2   5  13    0.01    0.07
   5  -3  13    0.02    0.07
   5  -3  13    0.06    0.08
   3   2  13    0.09    0.08
  -2   5  13    0.03    0.07
  -3  -2  13    0.04    0.07
  -3  -2  13    0.07    0.08
  -3  -2  13    0.01    0.06
  -5   3  13   -0.01    0.07
   3   2  13   -0.02    0.06
  -2   5  13   -0.02    0.06
   1  -5 -13    3.48    0.32
   5  -4 -13    3.36    0.30
  -5   4 -13    3.25    0.36
   1  -5 -13    2.59    0.30
   5  -4 -13    3.13    0.31
  -1   5 -13    3.04    0.33
  -4  -1 -13    2.79    0.45
  -1   5  13    2.75    0.32
  -1   5  13    3.12    0.36
   5  -4  13    2.66    0.26
  -5   4  13    2.97    0.33
   4   1  13    2.99    0.45
  -4  -1  13    2.93    0.32
   1  -5  13    3.60    0.35
  -5   4  13    2.41    0.35
   5  -4  13    2.84    0.28
   1  -5  13    3.04    0.32
   1  -5  13    2.80    0.34
  -1   5  13    3.12    0.29
  -5   4  13    2.29    0.48
  -4  -1  13    2.87    0.40
   1  -5  13    2.83    0.36
   5  -4  13    2.47    0.33
   0   0 -14  172.66    7.51
   0   0 -14  173.55    7.54
   0   0 -14  173.24    7.52
   0   0  14  164.99    7.35
   0   0  14  165.15    7.34
   0   0  14  164.24    7.40
   0   0  14  173.21    7.43
   0   0  14  179.31    7.36
  -1   0 -14    0.73    0.13
   0   1 -14    0.72    0.16
   1  -1 -14    0.79    0.15
   1   0 -14    0.79    0.16
   1   0 -14    0.87    0.16
  -1   1 -14    0.83    0.15
   0   1 -14    0.76    0.15
   0   1 -14    1.01    0.18
   1  -1 -14    1.01    0.18
   0  -1 -14    0.66    0.14
   0  -1 -14    0.79    0.15
  -1   1 -14    0.93    0.19
  -1   0 -14    0.89    0.19
  -1   0 -14    0.73    0.14
   0  -1 -14    1.14    0.20
   1   0 -14    0.80    0.15
  -1   1 -14    0.71    0.14
   1  -1  14    0.83    0.15
   0   1  14    0.58    0.15
  -1   1  14    0.78    0.18
   0   1  14    0.87    0.16
   0  -1  14    0.95    0.19
   1   0  14    0.92    0.15
  -1   0  14    0.94    0.16
   1  -1  14    0.88    0.18
   1  -1  14    1.04    0.19
   1   0  14    0.87    0.17
   1  -1  14    0.79    0.14
  -1   1  14    1.06    0.17
  -1   1  14    0.84    0.15
   0  -1  14    1.01    0.17
   1   0  14    0.84    0.17
  -1   0  14    0.69    0.13
  -1   0  14    1.04    0.20
   1   0  14    0.83    0.14
  -1   0  14    0.90    0.18
   0  -1  14    0.94    0.19
  -1   0  14    0.78    0.14
   0   1  14    0.96    0.21
   0   1  14    0.55    0.13
   0  -1  14    0.70    0.14
  -1   0  14    0.92    0.18
  -1   1  14    0.73    0.14
  -1   1  14    0.72    0.16
   1  -1  14    0.87    0.15
   0   1  14    0.86    0.19
   0  -1  14    0.74    0.15
   1   0  14    0.88    0.17
  -2   1 -14   48.42    2.28
   1   1 -14   49.53    2.34
  -2   1 -14   49.64    2.36
   1  -2 -14   47.71    2.33
   1  -2 -14   48.39    2.31
   2  -1 -14   48.43    2.27
   1   1 -14   50.48    2.31
   1   1 -14   52.48    2.32
   2  -1 -14   47.61    2.28
  -1   2 -14   50.78    2.33
  -2   1 -14   49.48    2.30
  -1   2 -14   49.06    2.35
  -1  -1 -14   55.21    2.41
  -1  -1 -14   49.35    2.30
  -1  -1 -14   49.13    2.29
  -1  -1  14   51.60    2.36
  -1  -1  14   48.16    2.25
  -1  -1  14   45.31    2.23
  -1   2  14   46.56    2.25
  -2   1  14   47.08    2.22
  -1   2  14   53.18    2.38
   1  -2  14   47.33    2.34
  -1  -1  14   48.67    2.36
   2  -1  14   49.07    2.23
   2  -1  14   47.71    2.28
   2  -1  14   47.18    2.29
   2  -1  14   46.32    2.22
   2  -1  14   48.03    2.23
  -1   2  14   50.10    2.34
  -2   1  14   51.45    2.33
  -1  -1  14   46.24    2.28
   1   1  14   45.08    2.22
   1  -2  14   49.78    2.27
  -1   2  14   47.45    2.26
  -1  -1  14   51.19    2.28
   1  -2  14   50.51    2.29
   1  -2  14   50.35    2.36
  -2   1  14   49.82    2.38
  -2   1  14   45.86    2.27
  -2   1  14   46.68    2.22
  -2   1  14   51.17    2.28
   1   1  14   47.03    2.31
  -1   2  14   50.90    2.40
   1   1  14   51.24    2.35
   1   1  14   46.45    2.23
   2  -2 -14    0.59    0.13
   0  -2 -14    0.63    0.17
  -2   2 -14    0.53    0.13
   2   0 -14    0.59    0.13
  -2   0 -14    0.54    0.16
   0   2 -14    0.41    0.13
   2  -2 -14    0.56    0.14
   0  -2 -14    0.34    0.12
  -2   0 -14    0.44    0.11
  -2   0 -14    0.74    0.15
   2   0 -14    0.83    0.15
   0  -2 -14    0.60    0.15
   0   2 -14    0.51    0.15
  -2   2 -14    0.89    0.20
  -2   2  14    0.66    0.14
   0  -2  14    0.86    0.19
   2  -2  14    0.64    0.14
  -2   2  14    0.66    0.20
   0  -2  14    0.47    0.12
  -2   0  14    0.68    0.13
   2   0  14    0.84    0.18
  -2   0  14    0.73    0.17
  -2   0  14    0.64    0.18
  -2   2  14    0.80    0.17
   0   2  14    0.54    0.14
   2   0  14    0.75    0.16
  -2   2  14    0.48    0.12
   0  -2  14    0.61    0.18
   0  -2  14    0.59    0.14
  -2   2  14    0.58    0.17
   2  -2  14    0.96    0.17
   2  -2  14    0.65    0.17
   2   0  14    0.82    0.15
   2   0  14    0.69    0.13
   0   2  14    0.89    0.21
   0   2  14    0.77    0.19
  -2   0  14    0.63    0.15
  -2   0  14    0.95    0.16
   0   2  14    0.76    0.16
  -2   0  14    0.50    0.13
   2  -2  14    0.84    0.19
  -2   2  14    0.57    0.15
   0  -2  14    0.71    0.16
  -3   1 -14    0.57    0.17
  -1  -2 -14    0.65    0.19
  -3   1 -14    0.68    0.14
  -2   3 -14    0.66    0.17
   1   2 -14    0.62    0.15
  -1  -2 -14    0.38    0.13
   3  -1 -14    0.66    0.14
  -3   1 -14    0.65    0.14
  -2   3 -14    0.36    0.12
   2  -3 -14    0.62    0.16
   2  -3 -14    0.28    0.12
   3  -1 -14    0.65    0.13
  -1  -2 -14    0.58    0.15
   1   2 -14    0.72    0.20
   2  -3  14    0.61    0.19
   3  -1  14    0.76    0.16
  -3   1  14    0.55    0.12
   1   2  14    0.54    0.14
   1   2  14    0.48    0.16
   1   2  14    0.68    0.19
  -2   3  14    0.60    0.16
  -2   3  14    0.58    0.17
   2  -3  14    0.50    0.17
  -3   1  14    0.56    0.14
  -2   3  14    0.54    0.15
  -2   3  14    0.55    0.18
  -3   1  14    0.51    0.14
  -3   1  14    0.66    0.19
  -1  -2  14    0.66    0.17
   1   2  14    0.76    0.16
   3  -1  14    0.59    0.13
   3  -1  14    0.66    0.16
   3  -1  14    0.66    0.13
  -2   3  14    0.64    0.16
  -1  -2  14    0.73    0.17
  -1  -2  14    0.89    0.22
  -1  -2  14    0.60    0.15
  -1  -2  14    0.48    0.13
  -3   1  14    0.79    0.15
   2  -3  14    0.86    0.19
  -3   1  14    0.78    0.18
   2  -3  14    0.57    0.15
   2   1 -14    0.69    0.16
   1  -3 -14    0.41    0.15
  -1   3 -14    0.58    0.16
  -2  -1 -14    0.54    0.13
  -2  -1 -14    0.81    0.15
  -1   3 -14    0.71    0.19
  -2  -1 -14    0.64    0.19
   2   1 -14    0.51    0.18
   1  -3 -14    0.16    0.10
  -3   2 -14    0.84    0.20
  -3   2 -14    0.64    0.14
   3  -2 -14    0.56    0.13
   3  -2 -14    0.64    0.13
  -3   2  14    0.68    0.15
   2   1  14    0.57    0.12
   2   1  14    0.58    0.13
   2   1  14    0.91    0.19
   1  -3  14    0.42    0.15
   1  -3  14    0.54    0.15
   1  -3  14    0.49    0.14
   3  -2  14    0.55    0.15
  -1   3  14    0.40    0.13
  -2  -1  14    0.71    0.17
  -2  -1  14    0.64    0.19
  -2  -1  14    0.54    0.13
  -2  -1  14    0.67    0.15
   1  -3  14    0.64    0.19
   3  -2  14    0.57    0.14
  -3   2  14    0.46    0.15
   2   1  14    0.70    0.18
  -2  -1  14    0.58    0.17
  -1   3  14    0.50    0.16
  -3   2  14    0.47    0.12
  -1   3  14    0.58    0.19
  -1   3  14    0.28    0.14
   3  -2  14    0.78    0.17
  -3   2  14    0.53    0.19
   3  -2  14    0.71    0.15
  -3   2  14    0.90    0.18
  -3   2  14    0.55    0.12
  -2  -1  14    0.67    0.15
   3   0 -14  146.70    6.30
   3  -3 -14  139.81    6.32
  -3   0 -14  156.68    6.49
  -3   3 -14  142.15    6.39
   0   3 -14  124.57    6.42
  -3   0 -14  144.87    6.26
   3  -3 -14  143.29    6.35
  -3   0 -14  143.39    6.28
   3   0 -14  151.51    6.30
  -3   0  14  137.19    6.18
  -3   0  14  146.33    5.99
   3   0  14  134.58    6.01
  -3   3  14  123.38    6.03
   3  -3  14  121.50    6.01
  -3   0  14  144.04    6.09
   0  -3  14  126.57    6.11
  -3   3  14  140.58    6.01
  -3   3  14  128.82    6.26
   0  -3  14  132.41    6.01
  -3   0  14  149.38    6.01
   3  -3  14  142.48    6.13
   3   0  14  132.78    5.94
  -3   3  14  139.51    6.00
   3   0  14  144.68    6.07
   3   0  14  132.30    5.94
   3  -3  14  132.19    6.13
   3  -3  14  125.54    6.01
  -3   0  14  141.51    6.02
  -3   0  14  145.38    6.04
  -3   3  14  139.10    6.06
  -3   4 -14    0.38    0.13
   4  -1 -14    0.72    0.15
   4  -1 -14    0.68    0.15
  -1  -3 -14    0.25    0.15
  -3   4 -14    0.68    0.18
   3  -4 -14    0.35    0.14
  -1  -3 -14    0.34    0.14
   1   3 -14    0.50    0.16
  -4   1 -14    0.64    0.21
   3  -4 -14    0.37    0.15
  -1  -3 -14    0.23    0.13
   3  -4  14    0.54    0.16
  -4   1  14    0.51    0.13
   3  -4  14    0.32    0.15
  -1  -3  14    0.34    0.16
   1   3  14    0.43    0.17
  -4   1  14    0.61    0.19
   3  -4  14    0.47    0.18
   3  -4  14    0.35    0.13
  -4   1  14    0.79    0.19
  -4   1  14    0.70    0.22
  -3   4  14    0.49    0.16
   1   3  14    0.33    0.16
  -3   4  14    0.68    0.20
  -3   4  14    0.44    0.15
  -1  -3  14    0.44    0.16
  -3   4  14    0.41    0.19
   4  -1  14    0.56    0.15
   4  -1  14    0.76    0.16
   1   3  14    0.42    0.14
  -1  -3  14    1.00    0.22
  -1  -3  14    0.50    0.14
  -1  -3  14    0.19    0.11
   4  -1  14    0.82    0.15
  -3   4  14    0.60    0.20
  -3   4  14    0.52    0.15
   1   3  14    0.19    0.11
   3  -4  14    0.46    0.15
   2   2 -14   32.53    1.78
  -2  -2 -14   41.02    1.80
  -2  -2 -14   38.80    1.78
   2  -4 -14   30.09    1.77
   4  -2 -14   39.22    1.74
  -4   2 -14   40.25    1.90
  -2   4 -14   40.04    1.90
   4  -2 -14   38.07    1.73
   2  -4 -14   30.70    1.79
  -2  -2 -14   32.98    1.89
  -4   2  14   39.14    1.70
   2   2  14   34.09    1.86
  -2  -2  14   36.94    1.76
  -2   4  14   29.66    1.76
  -2  -2  14   38.32    1.77
  -4   2  14   30.19    1.79
   2   2  14   38.20    1.76
  -2  -2  14   28.44    1.73
  -2  -2  14   30.53    1.76
   2   2  14   31.77    1.82
  -4   2  14   40.10    1.84
   2   2  14   38.03    1.76
   4  -2  14   37.97    1.73
  -4   2  14   38.66    1.71
  -4   2  14   38.94    1.77
   4  -2  14   38.28    1.73
   4  -2  14   39.13    1.80
  -1   4 -14    0.39    0.14
  -3  -1 -14    0.52    0.19
  -3  -1 -14    0.78    0.16
   4  -3 -14    0.75    0.17
   4  -3 -14    0.64    0.14
  -3  -1 -14    0.54    0.12
   3   1 -14    0.42    0.13
  -4   3 -14    0.63    0.16
   1  -4 -14    0.46    0.15
   1  -4 -14    0.40    0.15
  -4   3 -14    0.76    0.20
  -1   4 -14    0.43    0.17
   4  -3  14    0.57    0.17
  -4   3  14    0.63    0.15
  -3  -1  14    0.60    0.19
   3   1  14    0.44    0.11
   3   1  14    0.73    0.20
   3   1  14    0.64    0.17
  -1   4  14    0.34    0.15
   1  -4  14    0.50    0.16
  -1   4  14    0.33    0.16
  -3  -1  14    0.61    0.16
  -4   3  14    0.67    0.24
  -3  -1  14    0.49    0.14
  -4   3  14    0.79    0.16
   4  -3  14    0.53    0.14
   4  -3  14    0.64    0.17
   3   1  14    0.69    0.14
   1  -4  14    0.46    0.15
   1  -4  14    0.31    0.14
  -4   3  14    0.36    0.15
   1  -4  14    0.30    0.16
   1  -4  14    0.20    0.12
  -1   4  14    0.46    0.15
  -4   3  14    0.79    0.16
  -1   4  14    0.53    0.16
  -3  -1  14    0.61    0.20
  -4   3  14    0.51    0.16
   4  -3  14    0.56    0.15
  -3  -1  14    0.58    0.17
   4   0 -14    0.97    0.18
   4  -4 -14    0.79    0.19
  -4   4 -14    0.50    0.15
   0   4 -14    0.53    0.17
   4  -4 -14    0.43    0.14
   0  -4 -14    0.63    0.18
  -4   0 -14    0.41    0.18
   0  -4 -14    0.58    0.17
  -4   4 -14    0.80    0.22
   4   0  14    0.68    0.16
   0   4  14    0.68    0.19
   4  -4  14    0.32    0.12
   0   4  14    0.61    0.16
   0  -4  14    0.46    0.16
  -4   4  14    0.73    0.17
  -4   0  14    0.80    0.24
  -4   0  14    0.73    0.18
   0  -4  14    0.36    0.14
   0  -4  14    0.46    0.17
   0   4  14    0.55    0.20
  -4   4  14    0.75    0.17
  -4   4  14    0.47    0.18
   4   0  14    0.72    0.18
   4  -4  14    0.44    0.14
  -4   4  14    0.68    0.17
   4  -4  14    0.41    0.16
   4  -4  14    0.52    0.18
   4  -4  14    0.28    0.12
  -4   4  14    0.36    0.14
   0  -4  14    0.61    0.16
   0  -4  14    0.42    0.17
   4   0  14    0.66    0.13
   0   4  14    0.67    0.19
  -4   4  14    0.63    0.24
   0   0 -15    0.60    0.13
   0   0 -15    0.54    0.13
   0   0  15    0.77    0.17
  -1   0 -15    7.36    0.48
   0   1 -15    7.30    0.50
   1   0 -15    7.52    0.47
   0   1 -15    7.47    0.48
   0  -1 -15    7.67    0.48
   0  -1 -15    7.11    0.48
  -1   0 -15    7.29    0.46
   1  -1 -15    6.63    0.46
   0  -1 -15    7.37    0.50
   0   1 -15    6.98    0.48
   1  -1 -15    7.42    0.48
  -1   1 -15    7.29    0.50
  -1   1 -15    7.32    0.48
  -1   1 -15    7.19    0.47
   1   0 -15    7.24    0.47
  -1   0 -15    7.78    0.52
   1   0  15    6.98    0.45
  -1   0  15    6.77    0.46
  -1   1  15    7.40    0.47
  -1   1  15    6.84    0.45
   0  -1  15    7.48    0.48
  -1   1  15    7.63    0.54
   1  -1  15    7.30    0.51
   0   1  15    7.74    0.48
   1  -1  15    7.75    0.53
   1  -1  15    7.20    0.46
  -1   0  15    7.00    0.50
   0  -1  15    7.57    0.48
  -1   0  15    7.39    0.47
   1   0  15    7.55    0.52
   0  -1  15    7.15    0.46
   1   0  15    6.74    0.49
   0  -1  15    6.94    0.51
  -1   0  15    7.28    0.46
   0  -1  15    7.54    0.53
   0   1  15    7.51    0.54
   0   1  15    7.03    0.46
   1  -1  15    7.50    0.47
   1  -1  15    7.06    0.46
   0   1  15    7.21    0.52
  -1   1  15    7.19    0.51
  -1   0  15    6.82    0.50
   1   0  15    7.22    0.46
  -1   1  15    7.87    0.48
   1   1 -15   39.05    1.88
   2  -1 -15   38.84    1.86
   1  -2 -15   40.55    1.90
   1   1 -15   40.92    1.88
  -1  -1 -15   39.52    1.88
  -2   1 -15   38.04    1.92
  -2   1 -15   38.22    1.85
   2  -1 -15   38.61    1.87
   1  -2 -15   42.60    1.93
  -1  -1 -15   41.19    1.96
  -2   1 -15   38.17    1.87
   1   1 -15   38.72    1.91
  -1   2 -15   39.84    1.93
  -1   2 -15   39.65    1.89
  -1  -1 -15   39.11    1.86
  -1  -1  15   38.38    1.85
   1   1  15   39.98    1.94
  -1  -1  15   41.51    1.87
   1  -2  15   41.67    1.97
  -1   2  15   41.22    2.00
  -1  -1  15   39.41    1.98
  -1   2  15   38.18    1.87
  -2   1  15   38.37    1.83
  -1  -1  15   40.75    1.88
   1   1  15   38.65    1.85
  -1  -1  15   40.64    1.95
  -2   1  15   38.92    1.98
  -2   1  15   36.02    1.87
  -2   1  15   41.54    1.88
   2  -1  15   37.58    1.88
   1   1  15   39.51    1.93
  -1   2  15   38.32    1.93
  -2   1  15   37.56    1.84
   1   1  15   37.67    1.84
   1  -2  15   39.09    1.95
   1  -2  15   38.16    1.86
   2  -1  15   38.16    1.83
   1  -2  15   40.32    1.88
   2  -1  15   37.34    1.90
   1  -2  15   42.89    1.90
  -1  -1  15   38.20    1.90
   2  -1  15   37.74    1.83
  -1   2  15   37.42    1.86
  -2   1  15   38.47    1.92
   0  -2 -15    6.27    0.46
  -2   2 -15    6.72    0.49
   0   2 -15    6.24    0.49
   2   0 -15    6.37    0.44
   2  -2 -15    6.79    0.47
   0   2 -15    6.45    0.46
   0  -2 -15    6.29    0.47
  -2   0 -15    6.69    0.43
  -2   0 -15    6.09    0.43
   2   0 -15    6.76    0.44
  -2   0 -15    6.97    0.52
  -2   2 -15    6.80    0.46
   2  -2 -15    5.95    0.44
  -2   2  15    7.04    0.48
  -2   2  15    6.40    0.44
  -2   0  15    6.50    0.44
   0  -2  15    6.22    0.45
  -2   0  15    6.57    0.54
   2   0  15    6.02    0.42
  -2   0  15    6.03    0.46
  -2   0  15    6.78    0.46
   0   2  15    6.89    0.47
   0   2  15    6.62    0.47
  -2   2  15    6.67    0.45
  -2   2  15    7.01    0.55
  -2   0  15    6.64    0.50
  -2   2  15    6.19    0.48
   0   2  15    6.04    0.51
   2   0  15    6.42    0.43
   0  -2  15    6.91    0.51
   2   0  15    6.91    0.50
   0  -2  15    6.46    0.47
  -2   0  15    6.86    0.45
   2  -2  15    6.61    0.46
   2  -2  15    7.00    0.51
   2  -2  15    6.43    0.50
   2  -2  15    7.00    0.46
   0  -2  15    6.90    0.49
   0  -2  15    7.14    0.55
   2   0  15    6.37    0.47
   0   2  15    7.29    0.56
  -1  -2 -15    6.84    0.47
  -1  -2 -15    6.59    0.47
   3  -1 -15    5.75    0.42
  -3   1 -15    6.37    0.42
  -1  -2 -15    6.75    0.53
   2  -3 -15    6.34    0.49
   1   2 -15    6.02    0.51
   1   2 -15    6.34    0.47
   2  -3 -15    5.82    0.46
  -2   3 -15    6.04    0.49
   3  -1 -15    6.26    0.42
  -3   1 -15    6.48    0.51
  -3   1 -15    5.93    0.43
  -2   3 -15    5.48    0.45
   1   2  15    6.04    0.45
   1   2  15    6.31    0.45
  -2   3  15    5.74    0.45
  -2   3  15    6.24    0.51
  -1  -2  15    6.40    0.45
  -2   3  15    5.56    0.44
  -1  -2  15    7.28    0.51
  -1  -2  15    6.67    0.55
  -1  -2  15    5.91    0.47
   3  -1  15    5.54    0.44
   3  -1  15    6.17    0.41
  -1  -2  15    7.35    0.50
  -2   3  15    5.87    0.54
   2  -3  15    5.96    0.47
   3  -1  15    6.43    0.48
  -3   1  15    5.67    0.40
   2  -3  15    6.66    0.54
   2  -3  15    5.64    0.51
   2  -3  15    6.81    0.49
   1   2  15    6.20    0.52
   1   2  15    6.97    0.55
  -3   1  15    5.41    0.41
  -3   1  15    6.50    0.56
  -3   1  15    6.22    0.47
  -3   1  15    6.49    0.49
  -3   1  15    6.34    0.47
   3  -1  15    6.39    0.42
  -2  -1 -15    6.37    0.53
  -1   3 -15    6.13    0.49
  -1   3 -15    5.37    0.45
   1  -3 -15    5.50    0.47
   1  -3 -15    5.96    0.47
  -2  -1 -15    6.15    0.43
   3  -2 -15    6.12    0.43
  -3   2 -15    5.76    0.47
  -2  -1 -15    6.09    0.41
   2   1 -15    6.05    0.44
  -3   2 -15    6.47    0.44
   3  -2 -15    5.31    0.40
  -3   2  15    6.32    0.57
  -3   2  15    7.10    0.50
  -1   3  15    5.81    0.47
   1  -3  15    5.97    0.48
   2   1  15    6.02    0.42
   2   1  15    6.20    0.48
   3  -2  15    6.48    0.44
  -2  -1  15    5.85    0.53
   2   1  15    7.34    0.53
   2   1  15    5.84    0.42
  -2  -1  15    6.26    0.46
  -3   2  15    5.90    0.45
  -3   2  15    6.66    0.53
  -3   2  15    6.07    0.42
   1  -3  15    6.54    0.55
   3  -2  15    6.57    0.45
  -1   3  15    5.83    0.54
   1  -3  15    6.99    0.51
  -3   2  15    6.18    0.42
  -2  -1  15    7.20    0.48
   1  -3  15    5.70    0.51
  -2  -1  15    6.62    0.53
   3  -2  15    5.94    0.48
   3  -2  15    6.05    0.47
  -1   3  15    5.27    0.50
  -2  -1  15    6.58    0.45
  -1   3  15    5.61    0.46
  -2  -1  15    5.81    0.44
   3   0 -15    0.10    0.07
  -3   3 -15    0.20    0.11
  -3   0 -15    0.17    0.11
   3   0 -15    0.03    0.06
   0  -3 -15    0.00    0.08
  -3   0 -15    0.22    0.09
   0  -3 -15    0.21    0.11
   0   3 -15    0.12    0.10
   3  -3 -15    0.20    0.11
  -3   0 -15    0.24    0.10
   0   3 -15    0.19    0.13
   3  -3 -15    0.36    0.12
  -3   0  15    0.08    0.08
  -3   3  15    0.10    0.10
   3  -3  15    0.05    0.08
   3   0  15    0.18    0.08
  -3   3  15    0.36    0.12
  -3   0  15    0.07    0.07
   0  -3  15   -0.04    0.06
   0   3  15    0.31    0.13
   3   0  15    0.29    0.11
   3  -3  15    0.14    0.09
   0  -3  15    0.06    0.07
   0  -3  15    0.07    0.10
  -3   3  15    0.13    0.13
  -3   3  15    0.39    0.14
  -3   0  15    0.26    0.10
   0  -3  15    0.09    0.12
   3  -3  15    0.02    0.08
   0   3  15    0.06    0.09
   3  -3  15    0.07    0.08
  -3   0  15    0.08    0.07
  -3   0  15    0.10    0.07
   0   3  15    0.20    0.12
  -3   3  15    0.19    0.11
  -3   3  15    0.02    0.06
   0  -3  15    0.08    0.10
   3   0  15    0.71    0.19
   3   0  15    0.61    0.13
   0   3  15    0.10    0.10
  -3   0  15    0.08    0.07
   4  -2 -15   31.12    1.49
  -4   2 -15   32.00    1.64
   2   2 -15   32.09    1.58
   4  -2 -15   30.74    1.50
  -2  -2 -15   31.64    1.52
  -2  -2 -15   31.18    1.53
   2   2 -15   26.17    1.62
  -2  -2 -15   30.09    1.67
  -2   4 -15   30.46    1.63
   2  -4  15   24.29    1.48
  -2  -2  15   29.21    1.47
  -2  -2  15   28.38    1.46
  -2  -2  15   27.65    1.59
   4  -2  15   31.09    1.50
  -4   2  15   31.25    1.70
   2  -4  15   22.79    1.47
   2  -4  15   24.34    1.56
  -4   2  15   29.82    1.47
  -4   2  15   28.24    1.53
  -4   2  15   28.90    1.41
   2   2  15   29.74    1.45
   4  -2  15   30.02    1.43
  -4   2  15   29.27    1.39
   4  -2  15   29.71    1.50
   2  -4  15   23.71    1.47
   2   2  15   29.86    1.45
   2   2  15   30.38    1.57
   2   2  15   31.61    1.62
  -2  -2  15   30.20    1.50
  -2  -2  15   29.92    1.52
   4  -2  15   30.48    1.61
  -4   2  15   31.20    1.53
   0   0 -16  287.69   12.47
   0   0 -16  293.24   12.46
   0   0 -16  286.01   12.47
   0   0  16  297.98   12.22
   0   0  16  278.29   12.29
   0   0  16  268.73   12.21
   0   0  16  279.17   12.31
   0   0  16  294.45   12.23
   1   0 -16    0.40    0.11
  -1   1 -16    0.38    0.12
   0   1 -16    0.29    0.11
   0   1 -16    0.30    0.10
  -1   0 -16    0.49    0.12
   1  -1 -16    0.36    0.11
  -1   0 -16    0.32    0.10
  -1   1 -16    0.41    0.13
  -1   1 -16    0.33    0.11
  -1   0 -16    0.35    0.12
   1  -1 -16    0.22    0.09
   0  -1 -16    0.21    0.09
   0  -1 -16    0.46    0.13
   0   1 -16    0.37    0.12
   1   0 -16    0.33    0.11
   0  -1  16    0.26    0.10
   0  -1  16    0.20    0.10
  -1   1  16    0.30    0.10
   1  -1  16    0.35    0.12
   0  -1  16    0.39    0.13
   0  -1  16    0.25    0.09
   1  -1  16    0.32    0.12
   1  -1  16    0.27    0.10
   1  -1  16    0.26    0.09
  -1   0  16    0.22    0.08
  -1   0  16    0.37    0.10
  -1   1  16    0.27    0.09
  -1   1  16    0.22    0.09
   1   0  16    0.29    0.09
  -1   1  16    0.50    0.16
   0   1  16    0.33    0.11
   0   1  16    0.41    0.13
   0   1  16    0.24    0.11
   1   0  16    0.27    0.10
   0   1  16    0.33    0.10
   1   0  16    0.32    0.12
   1   0  16    0.26    0.11
  -1   0  16    0.33    0.12
  -1   0  16    0.35    0.13
  -1   0  16    0.36    0.11
  -1   1  16    0.19    0.10
   0  -1  16    0.37    0.11
   1  -1  16    0.30    0.10
  -2   1 -16   62.35    3.03
  -2   1 -16   66.79    3.11
   1   1 -16   66.23    3.05
  -1   2 -16   67.10    3.11
  -1  -1 -16   65.48    3.05
  -1  -1 -16   68.05    3.04
   1   1 -16   67.88    3.10
  -2   1 -16   65.48    3.03
   1  -2 -16   67.36    3.09
   2  -1 -16   68.11    3.05
   2  -1 -16   66.31    3.03
   1   1 -16   67.85    3.06
  -1  -1 -16   70.75    3.13
   1  -2 -16   67.71    3.06
  -1   2 -16   64.13    3.05
  -1  -1  16   70.85    3.05
  -2   1  16   61.59    3.05
  -1   2  16   65.22    3.03
  -1  -1  16   63.80    3.08
  -1   2  16   69.86    3.05
   1   1  16   66.26    3.01
  -2   1  16   63.40    3.00
   1   1  16   67.47    3.10
   2  -1  16   63.22    3.00
   2  -1  16   64.75    3.06
   2  -1  16   65.75    3.09
   1  -2  16   66.00    3.12
   1   1  16   64.56    3.11
  -1  -1  16   63.16    3.02
  -1   2  16   69.45    3.18
   2  -1  16   65.64    3.00
   1  -2  16   67.91    3.13
  -1  -1  16   68.32    3.03
  -1  -1  16   68.64    3.12
   1  -2  16   70.26    3.06
   1   1  16   67.55    3.02
   1  -2  16   66.97    3.04
  -1   2  16   65.24    3.11
  -2   1  16   64.40    3.09
  -2   1  16   68.63    3.04
  -2   1  16   62.94    2.99
   1  -2  16   66.97    3.04
   2  -2 -16    0.43    0.12
   0   2 -16    0.17    0.09
   2  -2 -16    0.26    0.11
  -2   0 -16    0.40    0.12
   0   2 -16    0.40    0.14
  -2   2 -16    0.40    0.14
  -2   0 -16    0.45    0.13
   0  -2 -16    0.32    0.12
   2   0 -16    0.42    0.12
  -2   2 -16    0.28    0.11
  -2   0 -16    0.58    0.17
   2   0 -16    0.25    0.10
   0  -2 -16    0.46    0.15
  -2   0  16    0.26    0.10
   0   2  16    0.34    0.13
  -2   0  16    0.35    0.15
  -2   2  16    0.55    0.15
   2   0  16    0.32    0.10
   2   0  16    0.50    0.14
   0   2  16    0.31    0.11
   0   2  16    0.29    0.11
  -2   2  16    0.31    0.12
   2  -2  16    0.30    0.13
   0  -2  16    0.39    0.12
   2  -2  16    0.26    0.10
  -2   0  16    0.30    0.12
  -2   0  16    0.18    0.09
  -2   0  16    0.25    0.10
   2   0  16    0.22    0.10
   2   0  16    0.43    0.12
  -2   2  16    0.29    0.13
   0   2  16    0.28    0.13
   2  -2  16    0.31    0.13
   2  -2  16    0.42    0.12
  -2   0  16    0.31    0.13
   2  -2  16    0.39    0.12
   0  -2  16    0.49    0.14
  -2   2  16    0.70    0.15
   0  -2  16    0.27    0.12
   0  -2  16    0.31    0.11
  -2   2  16    0.48    0.13
   0  -2  16    0.30    0.13
  -3   1 -16    0.33    0.11
  -2   3 -16    0.34    0.13
   1   2 -16    0.30    0.14
   1   2 -16    0.32    0.12
   2  -3 -16    0.26    0.12
   3  -1 -16    0.30    0.11
  -2   3 -16    0.22    0.12
  -1  -2 -16    0.36    0.15
  -1  -2 -16    0.28    0.12
  -3   1 -16    0.14    0.11
  -3   1  16    0.13    0.09
  -2   3  16    0.23    0.11
  -2   3  16    0.27    0.13
   3  -1  16    0.24    0.11
  -2   3  16    0.21    0.13
  -1  -2  16    0.51    0.16
   1   2  16    0.29    0.11
  -1  -2  16    0.30    0.12
  -3   1  16    0.43    0.12
  -3   1  16    0.25    0.11
  -3   1  16    0.29    0.12
   3  -1  16    0.22    0.09
   3  -1  16    0.47    0.14
   1   2  16    0.43    0.15
  -1  -2  16    0.16    0.11
  -1  -2  16    0.23    0.10
   2  -3  16    0.31    0.14
   2  -3  16    0.27    0.13
   1   2  16    0.31    0.14
   2  -3  16    0.44    0.14
   1  -3 -16    0.14    0.11
   2   1 -16    0.28    0.11
  -1   3 -16    0.31    0.12
  -2  -1 -16    0.20    0.09
   3  -2 -16    0.31    0.11
  -3   2 -16    0.32    0.11
  -2  -1 -16    0.30    0.15
  -1   3 -16    0.27    0.13
  -3   2 -16    0.17    0.10
  -3   2  16    0.17    0.09
  -3   2  16    0.33    0.14
  -3   2  16    0.29    0.11
  -1   3  16    0.23    0.12
   3  -2  16    0.27    0.10
  -2  -1  16    0.32    0.11
   3  -2  16    0.37    0.13
   3  -2  16    0.29    0.13
  -1   3  16    0.38    0.16
  -1   3  16    0.37    0.14
   1  -3  16    0.54    0.15
   1  -3  16    0.40    0.17
   1  -3  16    0.36    0.15
   1  -3  16    0.28    0.11
   2   1  16    0.23    0.09
   2   1  16    0.33    0.13
   2   1  16    0.30    0.13
  -2  -1  16    0.35    0.14
  -3   2  16    0.13    0.09
  -2  -1  16    0.29    0.11
  -2  -1  16    0.32    0.12
  -1   0 -17    0.00    0.06
  -1   0 -17    0.04    0.06
  -1   0 -17   -0.02    0.05
   0   1 -17    0.00    0.05
  -1   1 -17    0.09    0.08
   1   0 -17    0.09    0.07
   1   0 -17   -0.02    0.05
   1  -1 -17    0.09    0.07
   0   1 -17   -0.02    0.05
   1  -1 -17    0.07    0.08
  -1   1 -17    0.07    0.07
  -1   1 -17    0.05    0.06
   0  -1 -17    0.03    0.06
   0  -1 -17    0.04    0.06
   0   1 -17    0.04    0.08
   1   0  17    0.11    0.07
  -1   1  17    0.00    0.05
   0  -1  17    0.04    0.07
  -1   1  17   -0.01    0.05
  -1   1  17    0.00    0.04
  -1   0  17    0.00    0.05
  -1   0  17    0.02    0.06
  -1   0  17   -0.03    0.04
  -1   0  17    0.06    0.06
  -1   0  17    0.02    0.05
   0  -1  17    0.01    0.05
   0  -1  17    0.00    0.06
   1   0  17    0.03    0.07
   1   0  17   -0.01    0.05
   1   0  17    0.10    0.07
   0   1  17    0.03    0.06
   0   1  17   -0.04    0.05
   0   1  17    0.10    0.08
   0   1  17    0.01    0.05
   1  -1  17    0.03    0.06
   1  -1  17    0.06    0.06
   1  -1  17   -0.01    0.05
   1  -1  17    0.02    0.04
   1  -1  17    0.04    0.06
   0  -1  17    0.01    0.06
   0  -1  17    0.02    0.05
  -1   1  17    0.01    0.05
  -1   1  17   -0.02    0.06
   0   0   0    0.00    0.00
;
_shelx_hkl_checksum   71805

